#	Name:			B01S
#	Creating user name:	ccollar
#	Creation time:		Sat Jan 15 10:57:13 2005

#	Modifying user name:	ccollar
#	Modification time:	Sat Jan 15 10:57:20 2005

@<TRIPOS>MOLECULE
B01S
   68    70     2     1     0
SMALL
GASTEIGER


@<TRIPOS>ATOM
      1 C1         -4.960855    3.830264   -0.527074 C.ar      2 ISOPROPYL   -0.047108 
      2 C2         -5.616963    2.441199   -0.424825 C.3       2 ISOPROPYL   -0.025037 
      3 C3         -6.320714    1.926240   -1.723873 C.3       2 ISOPROPYL   -0.018536 
      4 C4         -7.769587    2.430092   -2.061525 C.3       2 ISOPROPYL    0.087645 
      5 C5         -7.911182    3.962456   -1.857714 C.3       2 ISOPROPYL    0.024946 
      6 C6         -6.969744    4.653246   -2.801686 C.2       2 ISOPROPYL    0.072142 
      7 C7         -6.741360    4.146689   -4.021435 C.2       2 ISOPROPYL    0.109797 
      8 C8         -7.428903    2.889423   -4.374564 C.2       2 ISOPROPYL    0.303213 
      9 O9         -8.020939    2.113611   -3.452775 O.3       2 ISOPROPYL   -0.303695 
     10 C1         -8.896065    1.598210   -1.341373 C.3       2 ISOPROPYL   -0.016541 
     11 C11        -3.886327    4.034114   -1.399960 C.ar      2 ISOPROPYL   -0.056142 
     12 C12        -3.274806    5.287072   -1.501886 C.ar      2 ISOPROPYL   -0.031682 
     13 O13        -7.484124    2.540796   -5.542097 O.2       2 ISOPROPYL   -0.258547 
     14 S14        -5.699080    4.923202   -5.259207 S.3       2 ISOPROPYL   -0.081047 
     15 C15        -4.119680    4.132780   -5.034354 C.ar      2 ISOPROPYL    0.016996 
     16 C16        -4.095026    2.743638   -4.871714 C.ar      2 ISOPROPYL   -0.043308 
     17 C17        -2.955311    2.080734   -4.411590 C.ar      2 ISOPROPYL   -0.031807 
     18 C18        -1.808926    2.845018   -4.174905 C.ar      2 ISOPROPYL    0.016184 
     19 C19        -1.804223    4.207453   -4.481412 C.ar      2 ISOPROPYL   -0.039119 
     20 C20        -2.917842    4.866035   -5.029755 C.ar      2 ISOPROPYL   -0.026768 
     21 O21        -6.422767    5.790302   -2.349837 O.3       2 ISOPROPYL   -0.362719 
     22 C22        -2.977439    0.564766   -4.168318 C.3       2 ISOPROPYL   -0.038203 
     23 C23        -2.786063    6.310548   -5.617344 C.3       2 ISOPROPYL   -0.011574 
     24 C24        -3.256421    6.300231   -7.104503 C.3       2 ISOPROPYL   -0.056009 
     25 C25        -1.306851    6.820134   -5.644011 C.3       2 ISOPROPYL   -0.056009 
     26 C26        -3.592825    7.363530   -4.797131 C.3       2 ISOPROPYL   -0.056009 
     27 N1         -0.642153    2.262445   -3.626039 N.3       1 AMINO      -0.302036 
     28 C28        -3.746900    6.365395   -0.745398 C.ar      2 ISOPROPYL    0.072598 
     29 C29        -4.812533    6.164887    0.133970 C.ar      2 ISOPROPYL   -0.031682 
     30 C30        -5.396387    4.901515    0.263810 C.ar      2 ISOPROPYL   -0.056142 
     31 O31        -3.174898    7.636619   -0.849607 O.3       2 ISOPROPYL   -0.359832 
     32 C2        -10.331771    2.069030   -1.725851 C.3       2 ISOPROPYL   -0.060022 
     33 C3         -8.802049    1.497871    0.206823 C.3       2 ISOPROPYL   -0.060022 
     34 H1         -6.279498    2.425364    0.446115 H         2 ISOPROPYL    0.031407 
     35 H2         -4.784013    1.756103   -0.194679 H         2 ISOPROPYL    0.031407 
     36 H3         -6.372943    0.826566   -1.674960 H         2 ISOPROPYL    0.029641 
     37 H4         -5.645103    2.157286   -2.558173 H         2 ISOPROPYL    0.029641 
     38 H5         -7.735467    4.239867   -0.812679 H         2 ISOPROPYL    0.036131 
     39 H6         -8.908264    4.325224   -2.140626 H         2 ISOPROPYL    0.036131 
     40 H7         -8.812172    0.563571   -1.721730 H         2 ISOPROPYL    0.032343 
     41 H8         -3.512130    3.211558   -1.996407 H         2 ISOPROPYL    0.062108 
     42 H9         -2.429939    5.417522   -2.166782 H         2 ISOPROPYL    0.064328 
     43 H10        -4.979593    2.166769   -5.107454 H         2 ISOPROPYL    0.063182 
     44 H11        -0.880465    4.723241   -4.263478 H         2 ISOPROPYL    0.063640 
     45 H12        -5.813361    6.231203   -2.929291 H         2 ISOPROPYL    0.216929 
     46 H13        -3.988680    0.146376   -4.282904 H         2 ISOPROPYL    0.027802 
     47 H14        -2.633881    0.340939   -3.148009 H         2 ISOPROPYL    0.027802 
     48 H15        -2.313596    0.069941   -4.892413 H         2 ISOPROPYL    0.027802 
     49 H16        -3.129450    7.292229   -7.564682 H         2 ISOPROPYL    0.023804 
     50 H17        -4.312615    6.029779   -7.218607 H         2 ISOPROPYL    0.023804 
     51 H18        -2.659906    5.573541   -7.677493 H         2 ISOPROPYL    0.023804 
     52 H19        -0.922183    6.983379   -4.625404 H         2 ISOPROPYL    0.023804 
     53 H20        -1.225105    7.785605   -6.167349 H         2 ISOPROPYL    0.023804 
     54 H21        -0.652957    6.111257   -6.175619 H         2 ISOPROPYL    0.023804 
     55 H22        -4.675581    7.289378   -4.942028 H         2 ISOPROPYL    0.023804 
     56 H23        -3.317889    8.387097   -5.094658 H         2 ISOPROPYL    0.023804 
     57 H24        -3.373711    7.249874   -3.726216 H         2 ISOPROPYL    0.023804 
     58 H25        -0.294916    1.442969   -4.238243 H         1 AMINO       0.123928 
     59 H26        -0.822188    1.928770   -2.614499 H         1 AMINO       0.123928 
     60 H27        -5.182971    6.999929    0.718988 H         2 ISOPROPYL    0.064328 
     61 H28        -6.189895    4.765082    0.991258 H         2 ISOPROPYL    0.062108 
     62 H29        -2.338936    7.653055   -1.301674 H         2 ISOPROPYL    0.217313 
     63 H30       -11.074746    1.310232   -1.432222 H         2 ISOPROPYL    0.023322 
     64 H31       -10.428237    2.225405   -2.811117 H         2 ISOPROPYL    0.023322 
     65 H32       -10.594725    3.002852   -1.207143 H         2 ISOPROPYL    0.023322 
     66 H33        -9.698910    1.004444    0.612969 H         2 ISOPROPYL    0.023322 
     67 H34        -8.731010    2.496143    0.662715 H         2 ISOPROPYL    0.023322 
     68 H35        -7.943530    0.881865    0.511425 H         2 ISOPROPYL    0.023322 
@<TRIPOS>BOND
     1    2    1 1    
     2    3    2 1    
     3    4    3 1    
     4    4    5 1    
     5    5    6 1    
     6    6    7 2    
     7    8    7 1    
     8    9    8 1    
     9    4    9 1    
    10   10   32 1    
    11    1   11 ar   
    12   11   12 ar   
    13    8   13 2    
    14    7   14 1    
    15   14   15 1    
    16   15   16 ar   
    17   16   17 ar   
    18   17   18 ar   
    19   19   18 ar   
    20   20   19 ar   
    21   15   20 ar   
    22    6   21 1    
    23   17   22 1    
    24   20   23 1    
    25   23   24 1    
    26   23   25 1    
    27   23   26 1    
    28    2   34 1    
    29   12   28 ar   
    30   29   28 ar   
    31   30   29 ar   
    32    1   30 ar   
    33   28   31 1    
    34   10   33 1    
    35   10    4 1    
    36    2   35 1    
    37   18   27 1    
    38    3   36 1    
    39    3   37 1    
    40    5   38 1    
    41    5   39 1    
    42   10   40 1    
    43   11   41 1    
    44   12   42 1    
    45   16   43 1    
    46   19   44 1    
    47   21   45 1    
    48   22   46 1    
    49   22   47 1    
    50   22   48 1    
    51   24   49 1    
    52   24   50 1    
    53   24   51 1    
    54   25   52 1    
    55   25   53 1    
    56   25   54 1    
    57   26   55 1    
    58   26   56 1    
    59   26   57 1    
    60   27   58 1    
    61   27   59 1    
    62   29   60 1    
    63   30   61 1    
    64   31   62 1    
    65   32   63 1    
    66   32   64 1    
    67   32   65 1    
    68   33   66 1    
    69   33   67 1    
    70   33   68 1    
@<TRIPOS>SUBSTRUCTURE
     1 AMINO      27 PERM              0 ****  ****    1  
     2 ISOPROPYL    10 PERM              0 ****  ****    1 ROOT 
@<TRIPOS>NORMAL
@<TRIPOS>FF_PBC
FORCE_FIELD_SETUP_FEATURE Force Field Setup information
v1.0  0 0.000000 0.000000 0.000000 0.000000 0.000000 0.000000 NONE 0 0 0 0 1 0 0 0 0 0 0 0 0
