#	Name:			B03
#	Creating user name:	ccollar
#	Creation time:		Sat Jan 15 10:14:21 2005

#	Modifying user name:	ccollar
#	Modification time:	Sat Jan 15 10:14:33 2005

@<TRIPOS>MOLECULE
B03
   81    84     2     1     0
SMALL
GASTEIGER


@<TRIPOS>ATOM
      1 C1         -6.306775    3.408773   -4.920900 C.ar      2 ISOPROPYL   -0.047108 
      2 C2         -6.978964    2.074842   -4.547461 C.3       2 ISOPROPYL   -0.025037 
      3 C3         -6.853065    0.933356   -5.609996 C.3       2 ISOPROPYL   -0.018536 
      4 C4         -7.843694    0.907955   -6.828425 C.3       2 ISOPROPYL    0.087645 
      5 C5         -8.016336    2.314641   -7.461566 C.3       2 ISOPROPYL    0.024946 
      6 C6         -6.681723    2.763938   -7.982524 C.2       2 ISOPROPYL    0.072142 
      7 C7         -5.828376    1.877840   -8.514975 C.2       2 ISOPROPYL    0.109797 
      8 C8         -6.248565    0.463294   -8.541851 C.2       2 ISOPROPYL    0.303213 
      9 O9         -7.284808    0.010123   -7.818691 O.3       2 ISOPROPYL   -0.303695 
     10 C1         -9.210551    0.199949   -6.497222 C.3       2 ISOPROPYL   -0.016541 
     11 C11        -4.917708    3.472746   -5.078538 C.ar      2 ISOPROPYL   -0.056142 
     12 C12        -4.290511    4.676653   -5.412576 C.ar      2 ISOPROPYL   -0.031682 
     13 O13        -5.653417   -0.327870   -9.254304 O.2       2 ISOPROPYL   -0.258547 
     14 S14        -4.240872    2.307289   -9.235814 S.3       2 ISOPROPYL   -0.081047 
     15 C15        -3.092822    2.066419   -7.896911 C.ar      2 ISOPROPYL    0.017015 
     16 C16        -3.221378    0.907671   -7.123723 C.ar      2 ISOPROPYL   -0.042990 
     17 C17        -2.552682    0.762728   -5.908042 C.ar      2 ISOPROPYL   -0.027032 
     18 C18        -1.661782    1.767663   -5.530127 C.ar      2 ISOPROPYL    0.051284 
     19 C19        -1.454811    2.870255   -6.361542 C.ar      2 ISOPROPYL   -0.034329 
     20 C20        -2.072672    2.996811   -7.617687 C.ar      2 ISOPROPYL   -0.026451 
     21 O21        -6.439102    4.079252   -7.899904 O.3       2 ISOPROPYL   -0.362719 
     22 C22        -2.815035   -0.464324   -5.027127 C.3       2 ISOPROPYL   -0.037884 
     23 C23        -1.606388    4.095791   -8.630747 C.3       2 ISOPROPYL   -0.011564 
     24 C24        -1.138987    3.403762   -9.947581 C.3       2 ISOPROPYL   -0.056009 
     25 C25        -0.374464    4.912189   -8.117615 C.3       2 ISOPROPYL   -0.056009 
     26 C26        -2.719036    5.146479   -8.933951 C.3       2 ISOPROPYL   -0.056009 
     27 N1         -0.949956    1.673936   -4.308173 N.am      1 AMINO      -0.215992 
     28 C28        -5.049589    5.834493   -5.615292 C.ar      2 ISOPROPYL    0.072598 
     29 C29        -6.434654    5.777921   -5.450135 C.ar      2 ISOPROPYL   -0.031682 
     30 C30        -7.055771    4.582256   -5.078140 C.ar      2 ISOPROPYL   -0.056142 
     31 O31        -4.452098    7.045175   -5.977547 O.3       2 ISOPROPYL   -0.359832 
     32 C2        -10.166708    0.131396   -7.726735 C.3       2 ISOPROPYL   -0.060022 
     33 C3        -10.001949    0.754583   -5.279937 C.3       2 ISOPROPYL   -0.060022 
     34 S34         0.418106    0.787908   -4.196393 S.o2      1 AMINO       0.072353 
     35 O35         1.259975    1.368074   -3.169031 O.2       1 AMINO      -0.149969 
     36 O36         0.072642   -0.617583   -4.138381 O.2       1 AMINO      -0.149969 
     37 C37         1.101236    1.159655   -5.796670 C.ar      1 AMINO       0.108496 
     38 C38         1.999979    2.219343   -5.949390 C.ar      1 AMINO      -0.035078 
     39 C39         2.514319    2.527325   -7.212254 C.ar      1 AMINO      -0.059901 
     40 C40         2.111108    1.790102   -8.329388 C.ar      1 AMINO      -0.061647 
     41 C41         1.202498    0.738255   -8.181188 C.ar      1 AMINO      -0.059901 
     42 C42         0.703795    0.420387   -6.914815 C.ar      1 AMINO      -0.035078 
     43 H1         -8.016831    2.268916   -4.259224 H         2 ISOPROPYL    0.031407 
     44 H2         -6.457907    1.747423   -3.632348 H         2 ISOPROPYL    0.031407 
     45 H3         -6.963090   -0.034110   -5.093802 H         2 ISOPROPYL    0.029641 
     46 H4         -5.818791    0.962457   -5.976830 H         2 ISOPROPYL    0.029641 
     47 H5         -8.444751    3.021616   -6.742684 H         2 ISOPROPYL    0.036131 
     48 H6         -8.669086    2.292234   -8.344300 H         2 ISOPROPYL    0.036131 
     49 H7         -8.967394   -0.850263   -6.252130 H         2 ISOPROPYL    0.032343 
     50 H8         -4.315694    2.585043   -4.928420 H         2 ISOPROPYL    0.062108 
     51 H9         -3.212331    4.709954   -5.509284 H         2 ISOPROPYL    0.064328 
     52 H10        -3.852482    0.098472   -7.467593 H         2 ISOPROPYL    0.063191 
     53 H11        -0.782764    3.619736   -5.970075 H         2 ISOPROPYL    0.063973 
     54 H12        -5.594067    4.377871   -8.212356 H         2 ISOPROPYL    0.216929 
     55 H13        -2.188108   -1.297951   -5.375744 H         2 ISOPROPYL    0.027812 
     56 H14        -3.872332   -0.762353   -5.093836 H         2 ISOPROPYL    0.027812 
     57 H15        -2.587313   -0.256052   -3.971489 H         2 ISOPROPYL    0.027812 
     58 H16        -1.942769    2.850336  -10.447457 H         2 ISOPROPYL    0.023804 
     59 H17        -0.329518    2.691918   -9.727182 H         2 ISOPROPYL    0.023804 
     60 H18        -0.761320    4.144776  -10.668778 H         2 ISOPROPYL    0.023804 
     61 H19         0.462273    4.247208   -7.859252 H         2 ISOPROPYL    0.023804 
     62 H20        -0.640360    5.526583   -7.243483 H         2 ISOPROPYL    0.023804 
     63 H21        -0.001877    5.604567   -8.888569 H         2 ISOPROPYL    0.023804 
     64 H22        -2.303577    6.024201   -9.452279 H         2 ISOPROPYL    0.023804 
     65 H23        -3.171631    5.490713   -7.993823 H         2 ISOPROPYL    0.023804 
     66 H24        -3.510870    4.765729   -9.587086 H         2 ISOPROPYL    0.023804 
     67 H25        -1.295646    2.141973   -3.495126 H         1 AMINO       0.173687 
     68 H26        -7.025957    6.673068   -5.611079 H         2 ISOPROPYL    0.064328 
     69 H27        -8.127612    4.581374   -4.909043 H         2 ISOPROPYL    0.062108 
     70 H28        -3.508488    7.064325   -5.864941 H         2 ISOPROPYL    0.217313 
     71 H29        -9.633926   -0.189212   -8.635005 H         2 ISOPROPYL    0.023322 
     72 H30       -10.638239    1.106986   -7.916713 H         2 ISOPROPYL    0.023322 
     73 H31       -10.975547   -0.593723   -7.542556 H         2 ISOPROPYL    0.023322 
     74 H32       -10.164209    1.837980   -5.376482 H         2 ISOPROPYL    0.023322 
     75 H33        -9.482000    0.533461   -4.336467 H         2 ISOPROPYL    0.023322 
     76 H34       -10.988717    0.270203   -5.212909 H         2 ISOPROPYL    0.023322 
     77 H35         2.297870    2.804404   -5.085964 H         1 AMINO       0.063707 
     78 H36         3.224639    3.340749   -7.326028 H         1 AMINO       0.061814 
     79 H37         2.502932    2.034852   -9.312080 H         1 AMINO       0.061759 
     80 H38         0.884011    0.168361   -9.048880 H         1 AMINO       0.061814 
     81 H39         0.004746   -0.400742   -6.799058 H         1 AMINO       0.063707 
@<TRIPOS>BOND
     1    2    1 1    
     2    3    2 1    
     3    4    3 1    
     4    4    5 1    
     5    5    6 1    
     6    6    7 2    
     7    8    7 1    
     8    9    8 1    
     9    4    9 1    
    10   10   32 1    
    11    1   11 ar   
    12   11   12 ar   
    13    8   13 2    
    14    7   14 1    
    15   14   15 1    
    16   15   16 ar   
    17   16   17 ar   
    18   17   18 ar   
    19   19   18 ar   
    20   20   19 ar   
    21   15   20 ar   
    22    6   21 1    
    23   17   22 1    
    24   20   23 1    
    25   23   24 1    
    26   23   25 1    
    27   23   26 1    
    28   27   34 1    
    29   12   28 ar   
    30   29   28 ar   
    31   30   29 ar   
    32    1   30 ar   
    33   28   31 1    
    34   10   33 1    
    35   10    4 1    
    36   34   35 2    
    37   18   27 1    
    38   34   36 2    
    39   34   37 1    
    40   37   38 ar   
    41   38   39 ar   
    42   39   40 ar   
    43   40   41 ar   
    44   41   42 ar   
    45   37   42 ar   
    46    2   43 1    
    47    2   44 1    
    48    3   45 1    
    49    3   46 1    
    50    5   47 1    
    51    5   48 1    
    52   10   49 1    
    53   11   50 1    
    54   12   51 1    
    55   16   52 1    
    56   19   53 1    
    57   21   54 1    
    58   22   55 1    
    59   22   56 1    
    60   22   57 1    
    61   24   58 1    
    62   24   59 1    
    63   24   60 1    
    64   25   61 1    
    65   25   62 1    
    66   25   63 1    
    67   26   64 1    
    68   26   65 1    
    69   26   66 1    
    70   27   67 1    
    71   29   68 1    
    72   30   69 1    
    73   31   70 1    
    74   32   71 1    
    75   32   72 1    
    76   32   73 1    
    77   33   74 1    
    78   33   75 1    
    79   33   76 1    
    80   38   77 1    
    81   39   78 1    
    82   40   79 1    
    83   41   80 1    
    84   42   81 1    
@<TRIPOS>SUBSTRUCTURE
     1 AMINO      27 PERM              0 ****  ****    1  
     2 ISOPROPYL    10 PERM              0 ****  ****    1 ROOT 
@<TRIPOS>NORMAL
@<TRIPOS>FF_PBC
FORCE_FIELD_SETUP_FEATURE Force Field Setup information
v1.0  0 0.000000 0.000000 0.000000 0.000000 0.000000 0.000000 NONE 0 0 0 0 1 0 0 0 0 0 0 0 0
