#	Name:			B04
#	Creating user name:	ccollar
#	Creation time:		Tue Apr  6 08:47:36 2004

#	Modifying user name:	ccollar
#	Modification time:	Tue Apr  6 09:03:15 2004

@<TRIPOS>MOLECULE
B04
   81    84     2     1     0
SMALL
GASTEIGER


@<TRIPOS>ATOM
      1 C1         -6.311242    3.408410   -4.921307 C.ar      2 ISOPROPYL   -0.047108 
      2 C2         -6.983339    2.073611   -4.550873 C.3       2 ISOPROPYL   -0.025037 
      3 C3         -6.851294    0.932405   -5.612938 C.3       2 ISOPROPYL   -0.018536 
      4 C4         -7.837109    0.905163   -6.835182 C.3       2 ISOPROPYL    0.087645 
      5 C5         -8.010635    2.311637   -7.468427 C.3       2 ISOPROPYL    0.024946 
      6 C6         -6.675193    2.764293   -7.984319 C.2       2 ISOPROPYL    0.072142 
      7 C7         -5.817651    1.880447   -8.513748 C.2       2 ISOPROPYL    0.109797 
      8 C8         -6.234139    0.464843   -8.542375 C.2       2 ISOPROPYL    0.303213 
      9 O9         -7.272228    0.008979   -7.823545 O.3       2 ISOPROPYL   -0.303695 
     10 C1         -9.203552    0.193896   -6.509277 C.3       2 ISOPROPYL   -0.016541 
     11 C11        -4.921570    3.474227   -5.072986 C.ar      2 ISOPROPYL   -0.056142 
     12 C12        -4.294525    4.679036   -5.404008 C.ar      2 ISOPROPYL   -0.031682 
     13 O13        -5.633816   -0.324739   -9.252236 O.2       2 ISOPROPYL   -0.258547 
     14 S14        -4.228670    2.313955   -9.228797 S.3       2 ISOPROPYL   -0.081047 
     15 C15        -3.083656    2.075913   -7.886795 C.ar      2 ISOPROPYL    0.017015 
     16 C16        -3.212830    0.917794   -7.112703 C.ar      2 ISOPROPYL   -0.042990 
     17 C17        -2.545839    0.774084   -5.895933 C.ar      2 ISOPROPYL   -0.027032 
     18 C18        -1.653684    1.778211   -5.518972 C.ar      2 ISOPROPYL    0.051284 
     19 C19        -1.448475    2.881955   -6.349442 C.ar      2 ISOPROPYL   -0.034329 
     20 C20        -2.065433    3.008040   -7.606128 C.ar      2 ISOPROPYL   -0.026451 
     21 O21        -6.436243    4.080167   -7.900551 O.3       2 ISOPROPYL   -0.362719 
     22 C22        -2.811721   -0.450756   -5.012960 C.3       2 ISOPROPYL   -0.037884 
     23 C23        -1.600605    4.108969   -8.617945 C.3       2 ISOPROPYL   -0.011564 
     24 C24        -1.130906    3.420599   -9.935991 C.3       2 ISOPROPYL   -0.056009 
     25 C25        -0.370962    4.927855   -8.103250 C.3       2 ISOPROPYL   -0.056009 
     26 C26        -2.715775    5.157273   -8.920203 C.3       2 ISOPROPYL   -0.056009 
     27 N1         -0.938163    1.681978   -4.299289 N.am      1 AMINO      -0.215992 
     28 C28        -5.054233    5.835988   -5.609565 C.ar      2 ISOPROPYL    0.072598 
     29 C29        -6.439963    5.777502   -5.450521 C.ar      2 ISOPROPYL   -0.031682 
     30 C30        -7.061088    4.580925   -5.081576 C.ar      2 ISOPROPYL   -0.056142 
     31 O31        -4.456738    7.047622   -5.968651 O.3       2 ISOPROPYL   -0.359832 
     32 C2        -10.154788    0.123134   -7.742436 C.3       2 ISOPROPYL   -0.060022 
     33 C3        -10.000898    0.746615   -5.294992 C.3       2 ISOPROPYL   -0.060022 
     34 S34         0.426230    0.789539   -4.191339 S.o2      1 AMINO       0.072355 
     35 O35         1.279605    1.372883   -3.175469 O.2       1 AMINO      -0.149969 
     36 O36         0.074626   -0.613768   -4.121371 O.2       1 AMINO      -0.149969 
     37 C37         1.097241    1.147211   -5.799244 C.ar      1 AMINO       0.108667 
     38 C38         1.999548    2.201974   -5.966457 C.ar      1 AMINO      -0.032369 
     39 C39         2.495448    2.505357   -7.237854 C.ar      1 AMINO      -0.024595 
     40 C40         2.070496    1.770013   -8.346993 C.ar      1 AMINO       0.123516 
     41 C41         1.166170    0.717986   -8.183170 C.ar      1 AMINO      -0.024595 
     42 C42         0.685835    0.402546   -6.909028 C.ar      1 AMINO      -0.032369 
     43 H1         -8.022884    2.266197   -4.267761 H         2 ISOPROPYL    0.031407 
     44 H2         -6.466057    1.746884   -3.633358 H         2 ISOPROPYL    0.031407 
     45 H3         -6.961335   -0.035295   -5.097229 H         2 ISOPROPYL    0.029641 
     46 H4         -5.815733    0.963625   -5.975761 H         2 ISOPROPYL    0.029641 
     47 H5         -8.443177    3.017311   -6.750746 H         2 ISOPROPYL    0.036131 
     48 H6         -8.660269    2.288038   -8.353439 H         2 ISOPROPYL    0.036131 
     49 H7         -8.958744   -0.855745   -6.263331 H         2 ISOPROPYL    0.032343 
     50 H8         -4.319031    2.587309   -4.920552 H         2 ISOPROPYL    0.062108 
     51 H9         -3.216010    4.713745   -5.496150 H         2 ISOPROPYL    0.064328 
     52 H10        -3.843212    0.108081   -7.456637 H         2 ISOPROPYL    0.063191 
     53 H11        -0.778641    3.632829   -5.956845 H         2 ISOPROPYL    0.063973 
     54 H12        -5.590869    4.381099   -8.209953 H         2 ISOPROPYL    0.216929 
     55 H13        -2.188497   -1.287532   -5.360494 H         2 ISOPROPYL    0.027812 
     56 H14        -3.870212   -0.744665   -5.078528 H         2 ISOPROPYL    0.027812 
     57 H15        -2.582692   -0.241691   -3.957771 H         2 ISOPROPYL    0.027812 
     58 H16        -1.932571    2.865468  -10.437233 H         2 ISOPROPYL    0.023804 
     59 H17        -0.318959    2.711233   -9.717584 H         2 ISOPROPYL    0.023804 
     60 H18        -0.755535    4.164095  -10.655836 H         2 ISOPROPYL    0.023804 
     61 H19         0.467412    4.264871   -7.845318 H         2 ISOPROPYL    0.023804 
     62 H20        -0.638820    5.540888   -7.228768 H         2 ISOPROPYL    0.023804 
     63 H21         0.000303    5.621888   -8.873389 H         2 ISOPROPYL    0.023804 
     64 H22        -2.302286    6.037335   -9.436211 H         2 ISOPROPYL    0.023804 
     65 H23        -3.170415    5.498266   -7.979869 H         2 ISOPROPYL    0.023804 
     66 H24        -3.505774    4.775522   -9.575040 H         2 ISOPROPYL    0.023804 
     67 H25        -1.279304    2.151805   -3.485252 H         1 AMINO       0.173687 
     68 H26        -7.031827    6.671846   -5.613830 H         2 ISOPROPYL    0.064328 
     69 H27        -8.133645    4.578557   -4.917256 H         2 ISOPROPYL    0.062108 
     70 H28        -3.513693    7.068385   -5.851451 H         2 ISOPROPYL    0.217313 
     71 H29        -9.617698   -0.196148   -8.648619 H         2 ISOPROPYL    0.023322 
     72 H30       -10.627991    1.097567   -7.934184 H         2 ISOPROPYL    0.023322 
     73 H31       -10.962562   -0.603983   -7.561364 H         2 ISOPROPYL    0.023322 
     74 H32       -10.165696    1.829567   -5.392221 H         2 ISOPROPYL    0.023322 
     75 H33        -9.483858    0.526987   -4.349566 H         2 ISOPROPYL    0.023322 
     76 H34       -10.986596    0.259594   -5.231622 H         2 ISOPROPYL    0.023322 
     77 H35         2.314021    2.786784   -5.108606 H         1 AMINO       0.063793 
     78 H36         3.207879    3.312872   -7.370795 H         1 AMINO       0.064668 
     79 F79         2.525226    2.073124   -9.559233 F         1 AMINO      -0.205487 
     80 H38         0.840152    0.150262   -9.048422 H         1 AMINO       0.064668 
     81 H39        -0.009681   -0.419914   -6.781194 H         1 AMINO       0.063793 
@<TRIPOS>BOND
     1    2    1 1    
     2    3    2 1    
     3    4    3 1    
     4    4    5 1    
     5    5    6 1    
     6    6    7 2    
     7    8    7 1    
     8    9    8 1    
     9    4    9 1    
    10   10   32 1    
    11    1   11 ar   
    12   11   12 ar   
    13    8   13 2    
    14    7   14 1    
    15   14   15 1    
    16   15   16 ar   
    17   16   17 ar   
    18   17   18 ar   
    19   19   18 ar   
    20   20   19 ar   
    21   15   20 ar   
    22    6   21 1    
    23   17   22 1    
    24   20   23 1    
    25   23   24 1    
    26   23   25 1    
    27   23   26 1    
    28   27   34 1    
    29   12   28 ar   
    30   29   28 ar   
    31   30   29 ar   
    32    1   30 ar   
    33   28   31 1    
    34   10   33 1    
    35   10    4 1    
    36   34   35 2    
    37   18   27 1    
    38   34   36 2    
    39   34   37 1    
    40   37   38 ar   
    41   38   39 ar   
    42   39   40 ar   
    43   40   41 ar   
    44   41   42 ar   
    45   37   42 ar   
    46    2   43 1    
    47    2   44 1    
    48    3   45 1    
    49    3   46 1    
    50    5   47 1    
    51    5   48 1    
    52   10   49 1    
    53   11   50 1    
    54   12   51 1    
    55   16   52 1    
    56   19   53 1    
    57   21   54 1    
    58   22   55 1    
    59   22   56 1    
    60   22   57 1    
    61   24   58 1    
    62   24   59 1    
    63   24   60 1    
    64   25   61 1    
    65   25   62 1    
    66   25   63 1    
    67   26   64 1    
    68   26   65 1    
    69   26   66 1    
    70   27   67 1    
    71   29   68 1    
    72   30   69 1    
    73   31   70 1    
    74   32   71 1    
    75   32   72 1    
    76   32   73 1    
    77   33   74 1    
    78   33   75 1    
    79   33   76 1    
    80   38   77 1    
    81   39   78 1    
    82   40   79 1    
    83   41   80 1    
    84   42   81 1    
@<TRIPOS>SUBSTRUCTURE
     1 AMINO      27 PERM              0 ****  ****    1  
     2 ISOPROPYL    10 PERM              0 ****  ****    1 ROOT 
@<TRIPOS>NORMAL
@<TRIPOS>FF_PBC
FORCE_FIELD_SETUP_FEATURE Force Field Setup information
v1.0  0 0.000000 0.000000 0.000000 0.000000 0.000000 0.000000 NONE 0 0 0 0 1 0 0 0 0 0 0 0 0
