#	Name:			B05
#	Creating user name:	ccollar
#	Creation time:		Sat Jan 15 10:27:51 2005

#	Modifying user name:	ccollar
#	Modification time:	Sat Jan 15 10:27:55 2005

@<TRIPOS>MOLECULE
B05
   81    84     2     1     0
SMALL
GASTEIGER


@<TRIPOS>ATOM
      1 C1         -6.325821    3.402125   -4.915177 C.ar      2 ISOPROPYL   -0.047108 
      2 C2         -6.998939    2.066865   -4.548176 C.3       2 ISOPROPYL   -0.025037 
      3 C3         -6.874019    0.929633   -5.615320 C.3       2 ISOPROPYL   -0.018536 
      4 C4         -7.860131    0.914355   -6.837689 C.3       2 ISOPROPYL    0.087645 
      5 C5         -8.025648    2.324916   -7.464139 C.3       2 ISOPROPYL    0.024946 
      6 C6         -6.687550    2.772659   -7.977511 C.2       2 ISOPROPYL    0.072142 
      7 C7         -5.835316    1.886199   -8.510963 C.2       2 ISOPROPYL    0.109797 
      8 C8         -6.259865    0.473220   -8.546948 C.2       2 ISOPROPYL    0.303213 
      9 O9         -7.300402    0.019663   -7.830285 O.3       2 ISOPROPYL   -0.303695 
     10 C1         -9.230877    0.209642   -6.515491 C.3       2 ISOPROPYL   -0.016541 
     11 C11        -4.936840    3.465991   -5.073635 C.ar      2 ISOPROPYL   -0.056142 
     12 C12        -4.308842    4.671705   -5.399654 C.ar      2 ISOPROPYL   -0.031682 
     13 O13        -5.664298   -0.316045   -9.261155 O.2       2 ISOPROPYL   -0.258547 
     14 S14        -4.244068    2.314409   -9.222973 S.3       2 ISOPROPYL   -0.081047 
     15 C15        -3.100999    2.059376   -7.882466 C.ar      2 ISOPROPYL    0.017015 
     16 C16        -3.236103    0.896362   -7.116575 C.ar      2 ISOPROPYL   -0.042990 
     17 C17        -2.568587    0.741850   -5.901305 C.ar      2 ISOPROPYL   -0.027032 
     18 C18        -1.693073    1.752955   -5.505489 C.ar      2 ISOPROPYL    0.051284 
     19 C19        -1.473873    2.856549   -6.332186 C.ar      2 ISOPROPYL   -0.034329 
     20 C20        -2.077524    2.983596   -7.595071 C.ar      2 ISOPROPYL   -0.026451 
     21 O21        -6.440494    4.086726   -7.887464 O.3       2 ISOPROPYL   -0.362719 
     22 C22        -2.803732   -0.502462   -5.036507 C.3       2 ISOPROPYL   -0.037884 
     23 C23        -1.593679    4.076531   -8.605984 C.3       2 ISOPROPYL   -0.011564 
     24 C24        -1.136264    3.381364   -9.924901 C.3       2 ISOPROPYL   -0.056009 
     25 C25        -0.348874    4.871271   -8.090143 C.3       2 ISOPROPYL   -0.056009 
     26 C26        -2.690786    5.144108   -8.905482 C.3       2 ISOPROPYL   -0.056009 
     27 N1         -1.006457    1.658549   -4.270404 N.am      1 AMINO      -0.215992 
     28 C28        -5.067251    5.831019   -5.596289 C.ar      2 ISOPROPYL    0.072598 
     29 C29        -6.452368    5.774269   -5.431463 C.ar      2 ISOPROPYL   -0.031682 
     30 C30        -7.074023    4.577006   -5.065561 C.ar      2 ISOPROPYL   -0.056142 
     31 O31        -4.469088    7.043218   -5.952264 O.3       2 ISOPROPYL   -0.359832 
     32 C2        -10.181684    0.148665   -7.749541 C.3       2 ISOPROPYL   -0.060022 
     33 C3        -10.026043    0.762429   -5.299779 C.3       2 ISOPROPYL   -0.060022 
     34 S34         0.452726    0.927198   -4.213275 S.o2      1 AMINO       0.072354 
     35 O35         1.252792    1.612210   -3.217757 O.2       1 AMINO      -0.149969 
     36 O36         0.228982   -0.497672   -4.076101 O.2       1 AMINO      -0.149969 
     37 C37         1.151345    1.232246   -5.819670 C.ar      1 AMINO       0.108582 
     38 C38         2.080358    2.260037   -6.007129 C.ar      1 AMINO      -0.033702 
     39 C39         2.583687    2.525987   -7.283948 C.ar      1 AMINO      -0.041531 
     40 C40         2.141562    1.779049   -8.379187 C.ar      1 AMINO       0.041088 
     41 C41         1.221945    0.743618   -8.192258 C.ar      1 AMINO      -0.041531 
     42 C42         0.733511    0.466782   -6.912414 C.ar      1 AMINO      -0.033702 
     43 H1         -8.036985    2.260180   -4.260179 H         2 ISOPROPYL    0.031407 
     44 H2         -6.478828    1.735059   -3.634118 H         2 ISOPROPYL    0.031407 
     45 H3         -6.991233   -0.039243   -5.103479 H         2 ISOPROPYL    0.029641 
     46 H4         -5.837847    0.954352   -5.977279 H         2 ISOPROPYL    0.029641 
     47 H5         -8.454572    3.029419   -6.743198 H         2 ISOPROPYL    0.036131 
     48 H6         -8.675417    2.309089   -8.349232 H         2 ISOPROPYL    0.036131 
     49 H7         -8.992173   -0.842316   -6.273475 H         2 ISOPROPYL    0.032343 
     50 H8         -4.335547    2.576734   -4.930505 H         2 ISOPROPYL    0.062108 
     51 H9         -3.230587    4.705270   -5.494922 H         2 ISOPROPYL    0.064328 
     52 H10        -3.869535    0.091880   -7.466915 H         2 ISOPROPYL    0.063191 
     53 H11        -0.806269    3.605613   -5.932099 H         2 ISOPROPYL    0.063973 
     54 H12        -5.593091    4.384285   -8.194940 H         2 ISOPROPYL    0.216929 
     55 H13        -2.110961   -1.294742   -5.355695 H         2 ISOPROPYL    0.027812 
     56 H14        -3.837012   -0.863086   -5.152518 H         2 ISOPROPYL    0.027812 
     57 H15        -2.635915   -0.287726   -3.971073 H         2 ISOPROPYL    0.027812 
     58 H16        -1.948988    2.848059  -10.431743 H         2 ISOPROPYL    0.023804 
     59 H17        -0.343485    2.651380   -9.704721 H         2 ISOPROPYL    0.023804 
     60 H18        -0.739452    4.116937  -10.641342 H         2 ISOPROPYL    0.023804 
     61 H19         0.472752    4.190246   -7.825701 H         2 ISOPROPYL    0.023804 
     62 H20        -0.605632    5.494191   -7.219404 H         2 ISOPROPYL    0.023804 
     63 H21         0.040157    5.553949   -8.861632 H         2 ISOPROPYL    0.023804 
     64 H22        -2.262950    6.013037   -9.428641 H         2 ISOPROPYL    0.023804 
     65 H23        -3.132661    5.498398   -7.963855 H         2 ISOPROPYL    0.023804 
     66 H24        -3.492975    4.773432   -9.551861 H         2 ISOPROPYL    0.023804 
     67 H25        -1.432736    1.984107   -3.426653 H         1 AMINO       0.173687 
     68 H26        -7.043303    6.670440   -5.587877 H         2 ISOPROPYL    0.064328 
     69 H27        -8.145750    4.575866   -4.895907 H         2 ISOPROPYL    0.062108 
     70 H28        -3.525596    7.061904   -5.838570 H         2 ISOPROPYL    0.217313 
     71 H29        -9.645750   -0.169995   -8.656621 H         2 ISOPROPYL    0.023322 
     72 H30       -10.649713    1.126260   -7.937869 H         2 ISOPROPYL    0.023322 
     73 H31       -10.993335   -0.574939   -7.571731 H         2 ISOPROPYL    0.023322 
     74 H32       -10.183198    1.846972   -5.392067 H         2 ISOPROPYL    0.023322 
     75 H33        -9.511939    0.534699   -4.354698 H         2 ISOPROPYL    0.023322 
     76 H34       -11.015187    0.282006   -5.239904 H         2 ISOPROPYL    0.023322 
     77 H35         2.409984    2.854127   -5.161587 H         1 AMINO       0.063750 
     78 H36         3.314821    3.314929   -7.428157 H         1 AMINO       0.063263 
     79 Cl79        2.736953    2.142837   -9.985407 Cl        1 AMINO      -0.083540 
     80 H38         0.887512    0.156881   -9.041769 H         1 AMINO       0.063263 
     81 H39         0.025736   -0.342027   -6.766330 H         1 AMINO       0.063750 
@<TRIPOS>BOND
     1    2    1 1    
     2    3    2 1    
     3    4    3 1    
     4    4    5 1    
     5    5    6 1    
     6    6    7 2    
     7    8    7 1    
     8    9    8 1    
     9    4    9 1    
    10   10   32 1    
    11    1   11 ar   
    12   11   12 ar   
    13    8   13 2    
    14    7   14 1    
    15   14   15 1    
    16   15   16 ar   
    17   16   17 ar   
    18   17   18 ar   
    19   19   18 ar   
    20   20   19 ar   
    21   15   20 ar   
    22    6   21 1    
    23   17   22 1    
    24   20   23 1    
    25   23   24 1    
    26   23   25 1    
    27   23   26 1    
    28   27   34 1    
    29   12   28 ar   
    30   29   28 ar   
    31   30   29 ar   
    32    1   30 ar   
    33   28   31 1    
    34   10   33 1    
    35   10    4 1    
    36   34   35 2    
    37   18   27 1    
    38   34   36 2    
    39   34   37 1    
    40   37   38 ar   
    41   38   39 ar   
    42   39   40 ar   
    43   40   41 ar   
    44   41   42 ar   
    45   37   42 ar   
    46    2   43 1    
    47    2   44 1    
    48    3   45 1    
    49    3   46 1    
    50    5   47 1    
    51    5   48 1    
    52   10   49 1    
    53   11   50 1    
    54   12   51 1    
    55   16   52 1    
    56   19   53 1    
    57   21   54 1    
    58   22   55 1    
    59   22   56 1    
    60   22   57 1    
    61   24   58 1    
    62   24   59 1    
    63   24   60 1    
    64   25   61 1    
    65   25   62 1    
    66   25   63 1    
    67   26   64 1    
    68   26   65 1    
    69   26   66 1    
    70   27   67 1    
    71   29   68 1    
    72   30   69 1    
    73   31   70 1    
    74   32   71 1    
    75   32   72 1    
    76   32   73 1    
    77   33   74 1    
    78   33   75 1    
    79   33   76 1    
    80   38   77 1    
    81   39   78 1    
    82   40   79 1    
    83   41   80 1    
    84   42   81 1    
@<TRIPOS>SUBSTRUCTURE
     1 AMINO      27 PERM              0 ****  ****    1  
     2 ISOPROPYL    10 PERM              0 ****  ****    1 ROOT 
@<TRIPOS>NORMAL
@<TRIPOS>FF_PBC
FORCE_FIELD_SETUP_FEATURE Force Field Setup information
v1.0  0 0.000000 0.000000 0.000000 0.000000 0.000000 0.000000 NONE 0 0 0 0 1 0 0 0 0 0 0 0 0
