#	Name:			B08
#	Creating user name:	ccollar
#	Creation time:		Mon Jan 17 11:41:15 2005

#	Modifying user name:	ccollar
#	Modification time:	Mon Jan 17 11:41:27 2005

@<TRIPOS>MOLECULE
B08
   82    85     3     1     0
SMALL
GASTEIGER


@<TRIPOS>ATOM
      1 C1         11.270296   15.711599    5.891434 C.ar      2 ISOPROPYL   -0.047108 
      2 C2         12.292726   15.806421    7.038739 C.3       2 ISOPROPYL   -0.025037 
      3 C3         11.946947   16.829377    8.170874 C.3       2 ISOPROPYL   -0.018536 
      4 C4         12.277934   18.349759    7.957245 C.3       2 ISOPROPYL    0.087645 
      5 C5         11.861194   18.838583    6.544167 C.3       2 ISOPROPYL    0.024946 
      6 C6         10.373526   18.684148    6.411667 C.2       2 ISOPROPYL    0.072142 
      7 C7          9.573982   18.891677    7.467307 C.2       2 ISOPROPYL    0.109797 
      8 C8         10.217648   19.249818    8.746186 C.2       2 ISOPROPYL    0.303213 
      9 O9         11.535080   19.095544    8.952757 O.3       2 ISOPROPYL   -0.303695 
     10 C1         13.762753   18.716150    8.331971 C.3       2 ISOPROPYL   -0.016541 
     11 C11         9.972383   15.254401    6.146089 C.ar      2 ISOPROPYL   -0.056142 
     12 C12         9.033675   15.155533    5.114866 C.ar      2 ISOPROPYL   -0.031682 
     13 O13         9.543899   19.718889    9.648275 O.2       2 ISOPROPYL   -0.258547 
     14 S14         7.781458   18.810152    7.411090 S.3       2 ISOPROPYL   -0.081047 
     15 C15         7.420022   17.144019    7.922799 C.ar      2 ISOPROPYL    0.017015 
     16 C16         8.110974   16.631897    9.026259 C.ar      2 ISOPROPYL   -0.042990 
     17 C17         8.092492   15.270677    9.331107 C.ar      2 ISOPROPYL   -0.027032 
     18 C18         7.287183   14.439154    8.552682 C.ar      2 ISOPROPYL    0.051284 
     19 C19         6.510368   14.976104    7.524137 C.ar      2 ISOPROPYL   -0.034329 
     20 C20         6.461955   16.355096    7.256495 C.ar      2 ISOPROPYL   -0.026451 
     21 O21         9.929333   18.363106    5.188772 O.3       2 ISOPROPYL   -0.362719 
     22 C22         8.943593   14.723562   10.483243 C.3       2 ISOPROPYL   -0.037884 
     23 C23         5.375576   16.945554    6.296216 C.3       2 ISOPROPYL   -0.011564 
     24 C24         4.536082   18.007756    7.070215 C.3       2 ISOPROPYL   -0.056009 
     25 C25         4.351807   15.869917    5.804067 C.3       2 ISOPROPYL   -0.056009 
     26 C26         5.991183   17.573098    5.007646 C.3       2 ISOPROPYL   -0.056009 
     27 N1          7.238726   13.046830    8.809534 N.am      1 AMINO      -0.215992 
     28 C28         9.374400   15.536793    3.812400 C.ar      2 ISOPROPYL    0.072598 
     29 C29        10.670328   15.985733    3.551687 C.ar      2 ISOPROPYL   -0.031682 
     30 C30        11.619218   16.045385    4.576289 C.ar      2 ISOPROPYL   -0.056142 
     31 O31         8.447405   15.476726    2.767884 O.3       2 ISOPROPYL   -0.359832 
     32 C2         14.067563   20.236418    8.169324 C.3       2 ISOPROPYL   -0.060022 
     33 C3         14.878945   17.904181    7.617415 C.3       2 ISOPROPYL   -0.060022 
     34 S34         6.195819   12.453201    9.918790 S.o2      1 AMINO       0.072354 
     35 O35         5.790387   11.128598    9.492769 O.2       1 AMINO      -0.149969 
     36 O36         6.777402   12.630225   11.233725 O.2       1 AMINO      -0.149969 
     37 C37         4.817700   13.564069    9.749117 C.ar      1 AMINO       0.108569 
     38 C38         3.723136   13.217562    8.951626 C.ar      1 AMINO      -0.033864 
     39 C39         2.665186   14.115680    8.782824 C.ar      1 AMINO      -0.042495 
     40 C40         2.711005   15.373104    9.392343 C.ar      1 AMINO       0.051887 
     41 C41         3.801416   15.718465   10.196290 C.ar      1 AMINO      -0.042495 
     42 C42         4.849068   14.811618   10.379255 C.ar      1 AMINO      -0.033864 
     43 H1         13.288146   15.970190    6.614276 H         2 ISOPROPYL    0.031407 
     44 H2         12.306088   14.797431    7.483586 H         2 ISOPROPYL    0.031407 
     45 H3         12.470386   16.518745    9.089548 H         2 ISOPROPYL    0.029641 
     46 H4         10.875946   16.711131    8.380973 H         2 ISOPROPYL    0.029641 
     47 H5         12.409251   18.300947    5.762732 H         2 ISOPROPYL    0.036131 
     48 H6         12.045441   19.912614    6.408678 H         2 ISOPROPYL    0.036131 
     49 H7         13.873600   18.505816    9.411618 H         2 ISOPROPYL    0.032343 
     50 H8          9.690658   14.960263    7.149542 H         2 ISOPROPYL    0.062108 
     51 H9          8.041507   14.777548    5.328304 H         2 ISOPROPYL    0.064328 
     52 H10         8.675522   17.298813    9.664839 H         2 ISOPROPYL    0.063191 
     53 H11         5.947739   14.255388    6.948971 H         2 ISOPROPYL    0.063973 
     54 H12         8.992111   18.248246    5.091211 H         2 ISOPROPYL    0.216929 
     55 H13         8.384426   14.831269   11.424112 H         2 ISOPROPYL    0.027812 
     56 H14         9.886867   15.284898   10.562579 H         2 ISOPROPYL    0.027812 
     57 H15         9.191060   13.662829   10.331089 H         2 ISOPROPYL    0.027812 
     58 H16         5.133345   18.863797    7.405400 H         2 ISOPROPYL    0.023804 
     59 H17         4.082763   17.547455    7.960355 H         2 ISOPROPYL    0.023804 
     60 H18         3.728014   18.407944    6.438754 H         2 ISOPROPYL    0.023804 
     61 H19         3.883000   15.352281    6.653226 H         2 ISOPROPYL    0.023804 
     62 H20         4.834327   15.132523    5.144062 H         2 ISOPROPYL    0.023804 
     63 H21         3.536662   16.327425    5.221985 H         2 ISOPROPYL    0.023804 
     64 H22         5.213170   17.769933    4.254173 H         2 ISOPROPYL    0.023804 
     65 H23         6.721680   16.879872    4.568157 H         2 ISOPROPYL    0.023804 
     66 H24         6.482768   18.535189    5.184954 H         2 ISOPROPYL    0.023804 
     67 H25         7.871632   12.427328    8.345490 H         1 AMINO       0.173687 
     68 H26        10.935863   16.286356    2.543758 H         2 ISOPROPYL    0.064328 
     69 H27        12.631690   16.350537    4.333029 H         2 ISOPROPYL    0.062108 
     70 H28         7.667188   14.971273    2.965957 H         2 ISOPROPYL    0.217313 
     71 H29        13.265945   20.856794    8.598407 H         2 ISOPROPYL    0.023322 
     72 H30        14.195850   20.503695    7.109924 H         2 ISOPROPYL    0.023322 
     73 H31        15.003535   20.496749    8.689119 H         2 ISOPROPYL    0.023322 
     74 H32        14.755770   17.942035    6.525247 H         2 ISOPROPYL    0.023322 
     75 H33        14.888486   16.859285    7.960145 H         2 ISOPROPYL    0.023322 
     76 H34        15.869158   18.320641    7.859966 H         2 ISOPROPYL    0.023322 
     77 H35         3.695338   12.250507    8.460912 H         1 AMINO       0.063744 
     78 H36         1.809875   13.837183    8.174577 H         1 AMINO       0.063090 
     79 C           1.637749   16.313013    9.189313 C.1       3 CN          0.099155 
     80 H38         3.836555   16.690912   10.678140 H         1 AMINO       0.063090 
     81 H39         5.690988   15.077207   11.009541 H         1 AMINO       0.063744 
     82 N           0.776663   17.069050    9.024577 N.1       3 CN         -0.190869 
@<TRIPOS>BOND
     1    2    1 1    
     2    3    2 1    
     3    4    3 1    
     4    4    5 1    
     5    5    6 1    
     6    6    7 2    
     7    8    7 1    
     8    9    8 1    
     9    4    9 1    
    10   10   32 1    
    11    1   11 ar   
    12   11   12 ar   
    13    8   13 2    
    14    7   14 1    
    15   14   15 1    
    16   15   16 ar   
    17   16   17 ar   
    18   17   18 ar   
    19   19   18 ar   
    20   20   19 ar   
    21   15   20 ar   
    22    6   21 1    
    23   17   22 1    
    24   20   23 1    
    25   23   24 1    
    26   23   25 1    
    27   23   26 1    
    28   27   34 1    
    29   12   28 ar   
    30   29   28 ar   
    31   30   29 ar   
    32    1   30 ar   
    33   28   31 1    
    34   10   33 1    
    35   10    4 1    
    36   34   35 2    
    37   18   27 1    
    38   34   36 2    
    39   34   37 1    
    40   37   38 ar   
    41   38   39 ar   
    42   39   40 ar   
    43   40   41 ar   
    44   41   42 ar   
    45   37   42 ar   
    46    2   43 1    
    47    2   44 1    
    48    3   45 1    
    49    3   46 1    
    50    5   47 1    
    51    5   48 1    
    52   10   49 1    
    53   11   50 1    
    54   12   51 1    
    55   16   52 1    
    56   19   53 1    
    57   21   54 1    
    58   22   55 1    
    59   22   56 1    
    60   22   57 1    
    61   24   58 1    
    62   24   59 1    
    63   24   60 1    
    64   25   61 1    
    65   25   62 1    
    66   25   63 1    
    67   26   64 1    
    68   26   65 1    
    69   26   66 1    
    70   27   67 1    
    71   29   68 1    
    72   30   69 1    
    73   31   70 1    
    74   32   71 1    
    75   32   72 1    
    76   32   73 1    
    77   33   74 1    
    78   33   75 1    
    79   33   76 1    
    80   38   77 1    
    81   39   78 1    
    82   79   82 3    
    83   41   80 1    
    84   42   81 1    
    85   40   79 1    
@<TRIPOS>SUBSTRUCTURE
     1 AMINO      27 PERM              0 ****  ****    2  
     2 ISOPROPYL    10 PERM              0 ****  ****    1 ROOT 
     3 CN         79 PERM              0 ****  ****    1  
@<TRIPOS>NORMAL
@<TRIPOS>FF_PBC
FORCE_FIELD_SETUP_FEATURE Force Field Setup information
v1.0  0 0.000000 0.000000 0.000000 0.000000 0.000000 0.000000 NONE 0 0 0 0 1 0 0 0 0 0 0 0 0
