#	Name:			B10
#	Creating user name:	ccollar
#	Creation time:		Mon Jan 17 11:42:31 2005

#	Modifying user name:	ccollar
#	Modification time:	Mon Jan 17 11:42:44 2005

@<TRIPOS>MOLECULE
B10
   80    83     2     1     0
SMALL
GASTEIGER


@<TRIPOS>ATOM
      1 C1         11.260769   15.703027    5.891311 C.ar      2 ISOPROPYL   -0.047108 
      2 C2         12.262779   15.776894    7.057892 C.3       2 ISOPROPYL   -0.025037 
      3 C3         11.928509   16.817162    8.177450 C.3       2 ISOPROPYL   -0.018536 
      4 C4         12.268165   18.333306    7.945816 C.3       2 ISOPROPYL    0.087645 
      5 C5         11.845526   18.812876    6.531072 C.3       2 ISOPROPYL    0.024946 
      6 C6         10.356316   18.665248    6.407915 C.2       2 ISOPROPYL    0.072142 
      7 C7          9.565054   18.884920    7.467173 C.2       2 ISOPROPYL    0.109797 
      8 C8         10.217923   19.251341    8.738984 C.2       2 ISOPROPYL    0.303213 
      9 O9         11.535783   19.092580    8.938857 O.3       2 ISOPROPYL   -0.303695 
     10 C1         13.757047   18.695823    8.308233 C.3       2 ISOPROPYL   -0.016541 
     11 C11         9.944277   15.287890    6.121723 C.ar      2 ISOPROPYL   -0.056142 
     12 C12         9.027765   15.203478    5.069357 C.ar      2 ISOPROPYL   -0.031682 
     13 O13         9.551997   19.731761    9.640909 O.2       2 ISOPROPYL   -0.258547 
     14 S14         7.772890   18.809060    7.422363 S.3       2 ISOPROPYL   -0.081047 
     15 C15         7.414249   17.146531    7.948115 C.ar      2 ISOPROPYL    0.017015 
     16 C16         8.094066   16.641031    9.060802 C.ar      2 ISOPROPYL   -0.042990 
     17 C17         8.040159   15.286428    9.395603 C.ar      2 ISOPROPYL   -0.027032 
     18 C18         7.290461   14.432628    8.581864 C.ar      2 ISOPROPYL    0.051335 
     19 C19         6.562905   14.966458    7.513454 C.ar      2 ISOPROPYL   -0.034328 
     20 C20         6.465865   16.348135    7.282788 C.ar      2 ISOPROPYL   -0.026451 
     21 O21         9.901749   18.337583    5.190351 O.3       2 ISOPROPYL   -0.362719 
     22 C22         8.786031   14.760138   10.629112 C.3       2 ISOPROPYL   -0.037884 
     23 C23         5.340228   16.926563    6.364254 C.3       2 ISOPROPYL   -0.011564 
     24 C24         4.519852   17.976310    7.175043 C.3       2 ISOPROPYL   -0.056009 
     25 C25         4.309917   15.838009    5.915326 C.3       2 ISOPROPYL   -0.056009 
     26 C26         5.902298   17.562574    5.056422 C.3       2 ISOPROPYL   -0.056009 
     27 N1          7.261851   13.034450    8.839719 N.am      1 AMINO      -0.214644 
     28 C28         9.405895   15.568167    3.772525 C.ar      2 ISOPROPYL    0.072598 
     29 C29        10.719796   15.976718    3.536818 C.ar      2 ISOPROPYL   -0.031682 
     30 C30        11.647684   16.015157    4.581396 C.ar      2 ISOPROPYL   -0.056142 
     31 O31         8.498923   15.531272    2.709393 O.3       2 ISOPROPYL   -0.359832 
     32 C2         14.068028   20.213085    8.129380 C.3       2 ISOPROPYL   -0.060022 
     33 C3         14.865210   17.871901    7.594777 C.3       2 ISOPROPYL   -0.060022 
     34 S34         5.924774   12.119766    8.576077 S.o2      1 AMINO       0.089596 
     35 O35         5.928598   11.726263    7.180626 O.2       1 AMINO      -0.148481 
     36 O36         5.903952   11.080891    9.586638 O.2       1 AMINO      -0.148481 
     37 C37         4.515853   13.166151    8.854835 C.ar      1 AMINO       0.196860 
     38 C38         3.283938   12.849376    8.276907 C.ar      1 AMINO      -0.016268 
     39 C39         2.193473   13.698595    8.482946 C.ar      1 AMINO      -0.056979 
     40 C40         2.359357   14.843892    9.266378 C.ar      1 AMINO      -0.043468 
     41 C41         3.605203   15.099943    9.846219 C.ar      1 AMINO       0.029800 
     42 N42         4.633557   14.249294    9.652011 N.ar      1 AMINO      -0.235383 
     43 H1         13.270613   15.907583    6.651978 H         2 ISOPROPYL    0.031407 
     44 H2         12.238269   14.771475    7.510321 H         2 ISOPROPYL    0.031407 
     45 H3         12.454181   16.513364    9.097122 H         2 ISOPROPYL    0.029641 
     46 H4         10.857665   16.706755    8.393594 H         2 ISOPROPYL    0.029641 
     47 H5         12.387387   18.267227    5.751131 H         2 ISOPROPYL    0.036131 
     48 H6         12.033876   19.884939    6.386115 H         2 ISOPROPYL    0.036131 
     49 H7         13.873475   18.495598    9.389211 H         2 ISOPROPYL    0.032343 
     50 H8          9.629723   15.015871    7.121937 H         2 ISOPROPYL    0.062108 
     51 H9          8.022993   14.849456    5.261782 H         2 ISOPROPYL    0.064328 
     52 H10         8.673365   17.312423    9.680789 H         2 ISOPROPYL    0.063191 
     53 H11         6.078498   14.259012    6.859319 H         2 ISOPROPYL    0.063973 
     54 H12         8.962734   18.229432    5.099223 H         2 ISOPROPYL    0.216929 
     55 H13         9.093183   15.576844   11.299470 H         2 ISOPROPYL    0.027812 
     56 H14         9.686207   14.218610   10.302083 H         2 ISOPROPYL    0.027812 
     57 H15         8.135376   14.079959   11.199369 H         2 ISOPROPYL    0.027812 
     58 H16         5.122694   18.833855    7.496294 H         2 ISOPROPYL    0.023804 
     59 H17         4.099773   17.503955    8.076336 H         2 ISOPROPYL    0.023804 
     60 H18         3.688528   18.376379    6.574483 H         2 ISOPROPYL    0.023804 
     61 H19         3.909228   15.295280    6.783981 H         2 ISOPROPYL    0.023804 
     62 H20         4.760578   15.121328    5.211731 H         2 ISOPROPYL    0.023804 
     63 H21         3.451950   16.289420    5.393298 H         2 ISOPROPYL    0.023804 
     64 H22         5.088971   17.774634    4.345515 H         2 ISOPROPYL    0.023804 
     65 H23         6.603986   16.867691    4.573975 H         2 ISOPROPYL    0.023804 
     66 H24         6.414645   18.515840    5.223550 H         2 ISOPROPYL    0.023804 
     67 H25         8.071351   12.568238    9.194775 H         1 AMINO       0.173738 
     68 H26        11.015591   16.262372    2.532988 H         2 ISOPROPYL    0.064328 
     69 H27        12.674129   16.287480    4.358117 H         2 ISOPROPYL    0.062108 
     70 H28         7.691413   15.067429    2.899686 H         2 ISOPROPYL    0.217313 
     71 H29        13.271429   20.841519    8.556091 H         2 ISOPROPYL    0.023322 
     72 H30        14.192632   20.469287    7.066798 H         2 ISOPROPYL    0.023322 
     73 H31        15.007608   20.474212    8.642239 H         2 ISOPROPYL    0.023322 
     74 H32        14.729602   17.890718    6.503602 H         2 ISOPROPYL    0.023322 
     75 H33        14.878977   16.833217    7.955594 H         2 ISOPROPYL    0.023322 
     76 H34        15.858260   18.291929    7.818841 H         2 ISOPROPYL    0.023322 
     77 H35         3.181051   11.954115    7.673223 H         1 AMINO       0.065280 
     78 H36         1.229300   13.472204    8.037980 H         1 AMINO       0.061908 
     79 H37         1.530439   15.527026    9.423536 H         1 AMINO       0.063267 
     80 H38         3.754980   15.983981   10.457195 H         1 AMINO       0.083003 
@<TRIPOS>BOND
     1    2    1 1    
     2    3    2 1    
     3    4    3 1    
     4    4    5 1    
     5    5    6 1    
     6    6    7 2    
     7    8    7 1    
     8    9    8 1    
     9    4    9 1    
    10   10   32 1    
    11    1   11 ar   
    12   11   12 ar   
    13    8   13 2    
    14    7   14 1    
    15   14   15 1    
    16   15   16 ar   
    17   16   17 ar   
    18   17   18 ar   
    19   19   18 ar   
    20   20   19 ar   
    21   15   20 ar   
    22    6   21 1    
    23   17   22 1    
    24   20   23 1    
    25   23   24 1    
    26   23   25 1    
    27   23   26 1    
    28   27   34 1    
    29   12   28 ar   
    30   29   28 ar   
    31   30   29 ar   
    32    1   30 ar   
    33   28   31 1    
    34   10   33 1    
    35   10    4 1    
    36   34   35 2    
    37   18   27 1    
    38   34   36 2    
    39   34   37 1    
    40   37   38 ar   
    41   38   39 ar   
    42   39   40 ar   
    43   40   41 ar   
    44   41   42 ar   
    45   37   42 ar   
    46    2   43 1    
    47    2   44 1    
    48    3   45 1    
    49    3   46 1    
    50    5   47 1    
    51    5   48 1    
    52   10   49 1    
    53   11   50 1    
    54   12   51 1    
    55   16   52 1    
    56   19   53 1    
    57   21   54 1    
    58   22   55 1    
    59   22   56 1    
    60   22   57 1    
    61   24   58 1    
    62   24   59 1    
    63   24   60 1    
    64   25   61 1    
    65   25   62 1    
    66   25   63 1    
    67   26   64 1    
    68   26   65 1    
    69   26   66 1    
    70   27   67 1    
    71   29   68 1    
    72   30   69 1    
    73   31   70 1    
    74   32   71 1    
    75   32   72 1    
    76   32   73 1    
    77   33   74 1    
    78   33   75 1    
    79   33   76 1    
    80   38   77 1    
    81   39   78 1    
    82   40   79 1    
    83   41   80 1    
@<TRIPOS>SUBSTRUCTURE
     1 AMINO      27 PERM              0 ****  ****    1  
     2 ISOPROPYL    10 PERM              0 ****  ****    1 ROOT 
@<TRIPOS>NORMAL
@<TRIPOS>FF_PBC
FORCE_FIELD_SETUP_FEATURE Force Field Setup information
v1.0  0 0.000000 0.000000 0.000000 0.000000 0.000000 0.000000 NONE 0 0 0 0 1 0 0 0 0 0 0 0 0
