#	Name:			B13
#	Creating user name:	ccollar
#	Creation time:		Mon Jan 17 11:58:27 2005

#	Modifying user name:	ccollar
#	Modification time:	Mon Jan 17 11:58:45 2005

@<TRIPOS>MOLECULE
B13
   62    64     2     1     0
SMALL
GASTEIGER


@<TRIPOS>ATOM
      1 C1         11.250488   15.639432    5.667800 C.ar      2 ISOPROPYL   -0.047108 
      2 C2         12.112057   15.671861    6.940501 C.3       2 ISOPROPYL   -0.025055 
      3 C3         11.726885   16.812564    7.929628 C.3       2 ISOPROPYL   -0.019042 
      4 C4         12.085734   18.282264    7.526717 C.3       2 ISOPROPYL    0.082569 
      5 C5         11.382787   18.779842    6.234814 C.3       2 ISOPROPYL    0.024442 
      6 C6          9.895964   18.772169    6.477255 C.2       2 ISOPROPYL    0.072124 
      7 C7          9.430829   19.050813    7.698009 C.2       2 ISOPROPYL    0.109797 
      8 C8         10.392312   19.349173    8.778908 C.2       2 ISOPROPYL    0.303197 
      9 O9         11.711164   19.129693    8.636166 O.3       2 ISOPROPYL   -0.304231 
     10 C1         13.622302   18.457414    7.373954 C.3       2 ISOPROPYL   -0.034831 
     11 C11         9.868781   15.443134    5.765586 C.ar      2 ISOPROPYL   -0.056142 
     12 C12         9.057392   15.470290    4.628228 C.ar      2 ISOPROPYL   -0.031682 
     13 O13         9.990431   19.824935    9.827517 O.2       2 ISOPROPYL   -0.258547 
     14 S14         7.674761   19.092343    8.030055 S.3       2 ISOPROPYL   -0.081047 
     15 C15         7.394782   17.347610    8.204405 C.ar      2 ISOPROPYL    0.016996 
     16 C16         8.126400   16.680020    9.191790 C.ar      2 ISOPROPYL   -0.043308 
     17 C17         8.146576   15.286373    9.259700 C.ar      2 ISOPROPYL   -0.031807 
     18 C18         7.399709   14.569898    8.325111 C.ar      2 ISOPROPYL    0.016184 
     19 C19         6.608244   15.248176    7.393117 C.ar      2 ISOPROPYL   -0.039119 
     20 C20         6.483722   16.648326    7.388378 C.ar      2 ISOPROPYL   -0.026768 
     21 O21         9.057268   18.506674    5.468076 O.3       2 ISOPROPYL   -0.362719 
     22 C22         8.970443   14.540813   10.314718 C.3       2 ISOPROPYL   -0.038203 
     23 C23         5.370899   17.345624    6.537096 C.3       2 ISOPROPYL   -0.011574 
     24 C24         4.499132   18.249870    7.462921 C.3       2 ISOPROPYL   -0.056009 
     25 C25         4.375583   16.327737    5.886571 C.3       2 ISOPROPYL   -0.056009 
     26 C26         5.968959   18.175120    5.360942 C.3       2 ISOPROPYL   -0.056009 
     27 N1        7.453695   13.156894    8.323820 N.3       1 AMINO      -0.302036 
     28 C28         9.627548   15.683349    3.367793 C.ar      2 ISOPROPYL    0.072598 
     29 C29        11.013069   15.825545    3.260146 C.ar      2 ISOPROPYL   -0.031682 
     30 C30        11.822711   15.793810    4.399510 C.ar      2 ISOPROPYL   -0.056142 
     31 O31         8.841863   15.756589    2.214132 O.3       2 ISOPROPYL   -0.359832 
     32 H1         13.184271   15.713528    6.700754 H         2 ISOPROPYL    0.031407 
     33 H2         11.937189   14.704570    7.440334 H         2 ISOPROPYL    0.031407 
     34 H3         12.247488   16.611373    8.880622 H         2 ISOPROPYL    0.029623 
     35 H4         10.654502   16.734782    8.146752 H         2 ISOPROPYL    0.029623 
     36 H5         11.690002   18.175013    5.374797 H         2 ISOPROPYL    0.036113 
     37 H6         11.670186   19.821959    6.026828 H         2 ISOPROPYL    0.036113 
     38 H7         13.864570   19.525948    7.266703 H         2 ISOPROPYL    0.025757 
     39 H8         14.003557   17.932725    6.485990 H         2 ISOPROPYL    0.025757 
     40 H9         14.146755   18.078899    8.264400 H         2 ISOPROPYL    0.025757 
     41 H10         9.416584   15.262974    6.731451 H         2 ISOPROPYL    0.062108 
     42 H11         7.987798   15.324163    4.733340 H         2 ISOPROPYL    0.064328 
     43 H12         8.694295   17.259194    9.912102 H         2 ISOPROPYL    0.063182 
     44 H13         6.097863   14.625825    6.673142 H         2 ISOPROPYL    0.063640 
     45 H14         9.466778   18.347720    4.624732 H         2 ISOPROPYL    0.216929 
     46 H15         9.777654   13.989297    9.809736 H         2 ISOPROPYL    0.027802 
     47 H16         8.324257   13.826739   10.846996 H         2 ISOPROPYL    0.027802 
     48 H17         9.416453   15.227311   11.049781 H         2 ISOPROPYL    0.027802 
     49 H18         3.663872   18.699358    6.904226 H         2 ISOPROPYL    0.023804 
     50 H19         5.058203   19.079390    7.909572 H         2 ISOPROPYL    0.023804 
     51 H20         4.081038   17.645162    8.282486 H         2 ISOPROPYL    0.023804 
     52 H21         3.941852   15.659758    6.647096 H         2 ISOPROPYL    0.023804 
     53 H22         4.865927   15.726130    5.105824 H         2 ISOPROPYL    0.023804 
     54 H23         3.536961   16.845486    5.395384 H         2 ISOPROPYL    0.023804 
     55 H24         5.171832   18.531135    4.690432 H         2 ISOPROPYL    0.023804 
     56 H25         6.654656   17.546686    4.773792 H         2 ISOPROPYL    0.023804 
     57 H26         6.512863   19.065754    5.693042 H         2 ISOPROPYL    0.023804 
     58 H27         7.851505   12.797845    7.385286 H         1 AMINO       0.123928 
     59 H28         6.468990   12.743893    8.490447 H         1 AMINO       0.123928 
     60 H29        11.457613   15.962756    2.280012 H         2 ISOPROPYL    0.064328 
     61 H30        12.897853   15.895050    4.291040 H         2 ISOPROPYL    0.062108 
     62 H31         7.905861   15.703339    2.371585 H         2 ISOPROPYL    0.217313 
@<TRIPOS>BOND
     1    2    1 1    
     2    2    3 1    
     3    3    4 1    
     4    4    5 1    
     5    5    6 1    
     6    6    7 2    
     7    7    8 1    
     8    8    9 1    
     9    4    9 1    
    10    2   32 1    
    11    1   11 ar   
    12   11   12 ar   
    13    8   13 2    
    14    7   14 1    
    15   14   15 1    
    16   15   16 ar   
    17   16   17 ar   
    18   17   18 ar   
    19   18   19 ar   
    20   19   20 ar   
    21   15   20 ar   
    22    6   21 1    
    23   17   22 1    
    24   20   23 1    
    25   23   24 1    
    26   23   25 1    
    27   23   26 1    
    28    2   33 1    
    29   12   28 ar   
    30   28   29 ar   
    31   29   30 ar   
    32    1   30 ar   
    33   28   31 1    
    34    3   34 1    
    35    4   10 1    
    36    3   35 1    
    37   18   27 1    
    38    5   36 1    
    39    5   37 1    
    40   10   38 1    
    41   10   39 1    
    42   10   40 1    
    43   11   41 1    
    44   12   42 1    
    45   16   43 1    
    46   19   44 1    
    47   21   45 1    
    48   22   46 1    
    49   22   47 1    
    50   22   48 1    
    51   24   49 1    
    52   24   50 1    
    53   24   51 1    
    54   25   52 1    
    55   25   53 1    
    56   25   54 1    
    57   26   55 1    
    58   26   56 1    
    59   26   57 1    
    60   27   58 1    
    61   27   59 1    
    62   29   60 1    
    63   30   61 1    
    64   31   62 1    
@<TRIPOS>SUBSTRUCTURE
     1 AMINO      27 PERM              0 ****  ****    1  
     2 ISOPROPYL    10 PERM              0 ****  ****    1 ROOT 
@<TRIPOS>NORMAL
@<TRIPOS>FF_PBC
FORCE_FIELD_SETUP_FEATURE Force Field Setup information
v1.0  0 0.000000 0.000000 0.000000 0.000000 0.000000 0.000000 NONE 0 0 0 0 1 0 0 0 0 0 0 0 0
