#	Name:			B14
#	Creating user name:	ccollar
#	Creation time:		Mon Jan 17 12:00:24 2005

#	Modifying user name:	ccollar
#	Modification time:	Mon Jan 17 12:00:41 2005

@<TRIPOS>MOLECULE
B14
   68    70     2     1     0
SMALL
GASTEIGER


@<TRIPOS>ATOM
      1 C1         11.247223   15.686467    5.681160 C.ar      2 ISOPROPYL   -0.047108 
      2 C2         12.177948   15.719886    6.906236 C.3       2 ISOPROPYL   -0.025055 
      3 C3         11.780220   16.795815    7.961950 C.3       2 ISOPROPYL   -0.019042 
      4 C4         12.167534   18.282923    7.663362 C.3       2 ISOPROPYL    0.082569 
      5 C5         11.645350   18.809193    6.302940 C.3       2 ISOPROPYL    0.024442 
      6 C6         10.149049   18.745280    6.339785 C.2       2 ISOPROPYL    0.072124 
      7 C7          9.489221   18.996529    7.479666 C.2       2 ISOPROPYL    0.109797 
      8 C8         10.297191   19.316677    8.677153 C.2       2 ISOPROPYL    0.303197 
      9 O9         11.624899   19.101189    8.724013 O.3       2 ISOPROPYL   -0.304231 
     10 C1         13.707600   18.483875    7.731115 C.3       2 ISOPROPYL   -0.034831 
     11 C11         9.890082   15.386560    5.844284 C.ar      2 ISOPROPYL   -0.056142 
     12 C12         9.009947   15.430685    4.759495 C.ar      2 ISOPROPYL   -0.031682 
     13 O13         9.755190   19.807272    9.653399 O.2       2 ISOPROPYL   -0.258547 
     14 S14         7.699783   18.997125    7.622392 S.3       2 ISOPROPYL   -0.081047 
     15 C15         7.388477   17.294874    8.033066 C.ar      2 ISOPROPYL    0.017015 
     16 C16         8.128906   16.723253    9.072699 C.ar      2 ISOPROPYL   -0.042990 
     17 C17         8.171815   15.339992    9.255901 C.ar      2 ISOPROPYL   -0.027044 
     18 C18         7.399625   14.542389    8.407987 C.ar      2 ISOPROPYL    0.050904 
     19 C19         6.591787   15.134217    7.434341 C.ar      2 ISOPROPYL   -0.034341 
     20 C20         6.430094   16.526233    7.346892 C.ar      2 ISOPROPYL   -0.026451 
     21 O21         9.555860   18.443454    5.176810 O.3       2 ISOPROPYL   -0.362719 
     22 C22         9.069777   14.746872   10.348990 C.3       2 ISOPROPYL   -0.037884 
     23 C23         5.225848   17.140419    6.563137 C.3       2 ISOPROPYL   -0.011564 
     24 C24         4.454064   18.116263    7.504141 C.3       2 ISOPROPYL   -0.056009 
     25 C25         4.184932   16.057386    6.125509 C.3       2 ISOPROPYL   -0.056009 
     26 C26         5.672817   17.876117    5.265054 C.3       2 ISOPROPYL   -0.056009 
     27 N1          7.426706   13.130439    8.523769 N.am      1 AMINO      -0.220615 
     28 C28         9.485958   15.754932    3.483906 C.ar      2 ISOPROPYL    0.072598 
     29 C29        10.850995   15.991036    3.305505 C.ar      2 ISOPROPYL   -0.031682 
     30 C30        11.730056   15.937489    4.391276 C.ar      2 ISOPROPYL   -0.056142 
     31 O31         8.627018   15.843488    2.384262 O.3       2 ISOPROPYL   -0.359832 
     32 H1         13.230452   15.833177    6.610710 H         2 ISOPROPYL    0.031407 
     33 H2         12.082638   14.723873    7.369716 H         2 ISOPROPYL    0.031407 
     34 S34         6.701983   12.383814    9.783293 S.o2      1 AMINO       0.040259 
     35 O35         7.363802   11.117114   10.019880 O.2       1 AMINO      -0.155452 
     36 O36         6.515267   13.322970   10.870298 O.2       1 AMINO      -0.155452 
     37 C37         5.099620   12.070342    9.026877 C.3       1 AMINO       0.073555 
     38 H3         12.263097   16.529522    8.916483 H         2 ISOPROPYL    0.029623 
     39 H4         10.700497   16.719530    8.136970 H         2 ISOPROPYL    0.029623 
     40 H5         12.066770   18.239219    5.467410 H         2 ISOPROPYL    0.036113 
     41 H6         11.927352   19.864242    6.164759 H         2 ISOPROPYL    0.036113 
     42 H7         13.944840   19.556475    7.659025 H         2 ISOPROPYL    0.025757 
     43 H8         14.222544   17.966333    6.909300 H         2 ISOPROPYL    0.025757 
     44 H9         14.106482   18.114795    8.688100 H         2 ISOPROPYL    0.025757 
     45 H10         9.512066   15.109595    6.819819 H         2 ISOPROPYL    0.062108 
     46 H11         7.960186   15.209384    4.914743 H         2 ISOPROPYL    0.064328 
     47 H12         8.686659   17.362246    9.747677 H         2 ISOPROPYL    0.063191 
     48 H13         6.094235   14.456545    6.755620 H         2 ISOPROPYL    0.063973 
     49 H14         8.609327   18.387459    5.184196 H         2 ISOPROPYL    0.216929 
     50 H15         8.587051   14.884083   11.327699 H         2 ISOPROPYL    0.027812 
     51 H16        10.040162   15.265631   10.356450 H         2 ISOPROPYL    0.027812 
     52 H17         9.258960   13.675682   10.187191 H         2 ISOPROPYL    0.027812 
     53 H18         5.060743   18.971384    7.824380 H         2 ISOPROPYL    0.023804 
     54 H19         4.125460   17.578953    8.407275 H         2 ISOPROPYL    0.023804 
     55 H20         3.564380   18.527588    7.002955 H         2 ISOPROPYL    0.023804 
     56 H21         3.875827   15.439667    6.983271 H         2 ISOPROPYL    0.023804 
     57 H22         4.587287   15.407744    5.333290 H         2 ISOPROPYL    0.023804 
     58 H23         3.275289   16.521223    5.713240 H         2 ISOPROPYL    0.023804 
     59 H24         4.800301   18.136548    4.646287 H         2 ISOPROPYL    0.023804 
     60 H25         6.330290   17.223209    4.672268 H         2 ISOPROPYL    0.023804 
     61 H26         6.197137   18.816253    5.468850 H         2 ISOPROPYL    0.023804 
     62 H27         7.806146   12.578726    7.780938 H         1 AMINO       0.173286 
     63 H28        11.224789   16.218020    2.312738 H         2 ISOPROPYL    0.064328 
     64 H29        12.790507   16.096667    4.223687 H         2 ISOPROPYL    0.062108 
     65 H30         7.707059   15.727676    2.592655 H         2 ISOPROPYL    0.217313 
     66 H31         4.456082   11.548010    9.749405 H         1 AMINO       0.048208 
     67 H32         5.228336   11.445541    8.131158 H         1 AMINO       0.048208 
     68 H33         4.634058   13.026356    8.745644 H         1 AMINO       0.048208 
@<TRIPOS>BOND
     1    2    1 1    
     2    2    3 1    
     3    3    4 1    
     4    4    5 1    
     5    5    6 1    
     6    6    7 2    
     7    7    8 1    
     8    8    9 1    
     9    4    9 1    
    10    2   32 1    
    11    1   11 ar   
    12   11   12 ar   
    13    8   13 2    
    14    7   14 1    
    15   14   15 1    
    16   15   16 ar   
    17   16   17 ar   
    18   17   18 ar   
    19   18   19 ar   
    20   19   20 ar   
    21   15   20 ar   
    22    6   21 1    
    23   17   22 1    
    24   20   23 1    
    25   23   24 1    
    26   23   25 1    
    27   23   26 1    
    28   27   34 1    
    29   12   28 ar   
    30   28   29 ar   
    31   29   30 ar   
    32    1   30 ar   
    33   28   31 1    
    34    2   33 1    
    35    4   10 1    
    36   34   35 2    
    37   18   27 1    
    38   34   36 2    
    39   34   37 1    
    40    3   38 1    
    41    3   39 1    
    42    5   40 1    
    43    5   41 1    
    44   10   42 1    
    45   10   43 1    
    46   10   44 1    
    47   11   45 1    
    48   12   46 1    
    49   16   47 1    
    50   19   48 1    
    51   21   49 1    
    52   22   50 1    
    53   22   51 1    
    54   22   52 1    
    55   24   53 1    
    56   24   54 1    
    57   24   55 1    
    58   25   56 1    
    59   25   57 1    
    60   25   58 1    
    61   26   59 1    
    62   26   60 1    
    63   26   61 1    
    64   27   62 1    
    65   29   63 1    
    66   30   64 1    
    67   31   65 1    
    68   37   66 1    
    69   37   67 1    
    70   37   68 1    
@<TRIPOS>SUBSTRUCTURE
     1 AMINO      27 PERM              0 ****  ****    1  
     2 ISOPROPYL    10 PERM              0 ****  ****    1 ROOT 
@<TRIPOS>NORMAL
@<TRIPOS>FF_PBC
FORCE_FIELD_SETUP_FEATURE Force Field Setup information
v1.0  0 0.000000 0.000000 0.000000 0.000000 0.000000 0.000000 NONE 0 0 0 0 1 0 0 0 0 0 0 0 0
