#	Name:			B16
#	Creating user name:	ccollar
#	Creation time:		Mon Jan 17 12:01:38 2005

#	Modifying user name:	ccollar
#	Modification time:	Mon Jan 17 12:02:09 2005

@<TRIPOS>MOLECULE
B16
   75    78     2     1     0
SMALL
GASTEIGER


@<TRIPOS>ATOM
      1 C1         11.239795   15.659347    5.666728 C.ar      2 ISOPROPYL   -0.047108 
      2 C2         12.125243   15.675569    6.924609 C.3       2 ISOPROPYL   -0.025055 
      3 C3         11.728645   16.775681    7.955263 C.3       2 ISOPROPYL   -0.019042 
      4 C4         12.124425   18.254785    7.628463 C.3       2 ISOPROPYL    0.082569 
      5 C5         11.563825   18.780121    6.282297 C.3       2 ISOPROPYL    0.024442 
      6 C6         10.068731   18.740917    6.368405 C.2       2 ISOPROPYL    0.072124 
      7 C7          9.451301   19.006244    7.528500 C.2       2 ISOPROPYL    0.109797 
      8 C8         10.301757   19.316490    8.698631 C.2       2 ISOPROPYL    0.303197 
      9 O9         11.627725   19.086318    8.701352 O.3       2 ISOPROPYL   -0.304231 
     10 C1         13.668103   18.436087    7.643026 C.3       2 ISOPROPYL   -0.034831 
     11 C11         9.865968   15.421279    5.783536 C.ar      2 ISOPROPYL   -0.056142 
     12 C12         9.028717   15.480733    4.666119 C.ar      2 ISOPROPYL   -0.031682 
     13 O13         9.797540   19.811694    9.692640 O.2       2 ISOPROPYL   -0.258547 
     14 S14         7.668457   19.033303    7.729159 S.3       2 ISOPROPYL   -0.081047 
     15 C15         7.368031   17.325454    8.119606 C.ar      2 ISOPROPYL    0.017015 
     16 C16         8.113001   16.737803    9.145383 C.ar      2 ISOPROPYL   -0.042990 
     17 C17         8.144355   15.350611    9.306679 C.ar      2 ISOPROPYL   -0.027032 
     18 C18         7.455921   14.557149    8.382172 C.ar      2 ISOPROPYL    0.051284 
     19 C19         6.636828   15.174541    7.429898 C.ar      2 ISOPROPYL   -0.034329 
     20 C20         6.414085   16.559858    7.427943 C.ar      2 ISOPROPYL   -0.026451 
     21 O21         9.431918   18.444866    5.227036 O.3       2 ISOPROPYL   -0.362719 
     22 C22         8.924012   14.730698   10.474162 C.3       2 ISOPROPYL   -0.037884 
     23 C23         5.162012   17.169663    6.723751 C.3       2 ISOPROPYL   -0.011564 
     24 C24         4.429346   18.120277    7.720414 C.3       2 ISOPROPYL   -0.056009 
     25 C25         4.115915   16.075935    6.330922 C.3       2 ISOPROPYL   -0.056009 
     26 C26         5.535406   17.928303    5.417148 C.3       2 ISOPROPYL   -0.056009 
     27 N1          7.593269   13.140811    8.407596 N.am      1 AMINO      -0.215992 
     28 C28         9.566638   15.752713    3.402912 C.ar      2 ISOPROPYL    0.072598 
     29 C29        10.946249   15.928405    3.272420 C.ar      2 ISOPROPYL   -0.031682 
     30 C30        11.780862   15.867150    4.392388 C.ar      2 ISOPROPYL   -0.056142 
     31 O31         8.754944   15.848678    2.268547 O.3       2 ISOPROPYL   -0.359832 
     32 H1         13.191048   15.750815    6.666597 H         2 ISOPROPYL    0.031407 
     33 H2         11.981081   14.688828    7.395240 H         2 ISOPROPYL    0.031407 
     34 S34         6.456311   12.102119    7.840764 S.o2      1 AMINO       0.072355 
     35 O35         6.573679   12.072905    6.396263 O.2       1 AMINO      -0.149969 
     36 O36         6.611217   10.858627    8.568220 O.2       1 AMINO      -0.149969 
     37 C37         4.859571   12.756598    8.261426 C.ar      1 AMINO       0.108667 
     38 C38         3.770601   12.541700    7.411469 C.ar      1 AMINO      -0.032369 
     39 C39         2.511029   13.049286    7.744281 C.ar      1 AMINO      -0.024595 
     40 C40         2.340289   13.771717    8.928006 C.ar      1 AMINO       0.123516 
     41 C41         3.423854   13.972706    9.786845 C.ar      1 AMINO      -0.024595 
     42 C42         4.679799   13.452376    9.460755 C.ar      1 AMINO      -0.032369 
     43 H3         12.210465   16.525401    8.914767 H         2 ISOPROPYL    0.029623 
     44 H4         10.648538   16.707417    8.132293 H         2 ISOPROPYL    0.029623 
     45 H5         11.945821   18.200477    5.434626 H         2 ISOPROPYL    0.036113 
     46 H6         11.857089   19.829917    6.128430 H         2 ISOPROPYL    0.036113 
     47 H7         13.916163   19.505996    7.567327 H         2 ISOPROPYL    0.025757 
     48 H8         14.146144   17.916843    6.800123 H         2 ISOPROPYL    0.025757 
     49 H9         14.095853   18.056573    8.583301 H         2 ISOPROPYL    0.025757 
     50 H10         9.440911   15.181863    6.748777 H         2 ISOPROPYL    0.062108 
     51 H11         7.964259   15.312780    4.787507 H         2 ISOPROPYL    0.064328 
     52 H12         8.677130   17.370655    9.820986 H         2 ISOPROPYL    0.063191 
     53 H13         6.182307   14.548082    6.679286 H         2 ISOPROPYL    0.063973 
     54 H14         8.485246   18.403912    5.265972 H         2 ISOPROPYL    0.216929 
     55 H15         9.137796   15.473424   11.257451 H         2 ISOPROPYL    0.027812 
     56 H16         9.878904   14.332533   10.099462 H         2 ISOPROPYL    0.027812 
     57 H17         8.339955   13.917355   10.930682 H         2 ISOPROPYL    0.027812 
     58 H18         5.038740   18.982030    8.016579 H         2 ISOPROPYL    0.023804 
     59 H19         4.161161   17.565567    8.633150 H         2 ISOPROPYL    0.023804 
     60 H20         3.506080   18.523023    7.276300 H         2 ISOPROPYL    0.023804 
     61 H21         3.889818   15.440326    7.198554 H         2 ISOPROPYL    0.023804 
     62 H22         4.467870   15.446774    5.499646 H         2 ISOPROPYL    0.023804 
     63 H23         3.168909   16.527181    5.996610 H         2 ISOPROPYL    0.023804 
     64 H24         4.628156   18.202459    4.857035 H         2 ISOPROPYL    0.023804 
     65 H25         6.155217   17.284208    4.775337 H         2 ISOPROPYL    0.023804 
     66 H26         6.077784   18.860517    5.612286 H         2 ISOPROPYL    0.023804 
     67 H27         8.432982   12.726750    8.757477 H         1 AMINO       0.173687 
     68 H28        11.366448   16.114723    2.289779 H         2 ISOPROPYL    0.064328 
     69 H29        12.851829   15.987364    4.264015 H         2 ISOPROPYL    0.062108 
     70 H30         7.824065   15.771049    2.443844 H         2 ISOPROPYL    0.217313 
     71 H31         3.905324   11.980661    6.492643 H         1 AMINO       0.063793 
     72 H32         1.662898   12.887381    7.087269 H         1 AMINO       0.064668 
     73 H33         3.283773   14.532769   10.705508 H         1 AMINO       0.064668 
     74 H34         5.515601   13.587629   10.138975 H         1 AMINO       0.063793 
     75 F79         1.146306   14.268862    9.236910 F         1 AMINO      -0.205487 
@<TRIPOS>BOND
     1    2    1 1    
     2    2    3 1    
     3    3    4 1    
     4    4    5 1    
     5    5    6 1    
     6    6    7 2    
     7    7    8 1    
     8    8    9 1    
     9    4    9 1    
    10    2   32 1    
    11    1   11 ar   
    12   11   12 ar   
    13    8   13 2    
    14    7   14 1    
    15   14   15 1    
    16   15   16 ar   
    17   16   17 ar   
    18   17   18 ar   
    19   18   19 ar   
    20   19   20 ar   
    21   15   20 ar   
    22    6   21 1    
    23   17   22 1    
    24   20   23 1    
    25   23   24 1    
    26   23   25 1    
    27   23   26 1    
    28   27   34 1    
    29   12   28 ar   
    30   28   29 ar   
    31   29   30 ar   
    32    1   30 ar   
    33   28   31 1    
    34    2   33 1    
    35    4   10 1    
    36   34   35 2    
    37   18   27 1    
    38   34   36 2    
    39   34   37 1    
    40   37   38 ar   
    41   38   39 ar   
    42   39   40 ar   
    43   40   41 ar   
    44   41   42 ar   
    45   37   42 ar   
    46    3   43 1    
    47    3   44 1    
    48    5   45 1    
    49    5   46 1    
    50   10   47 1    
    51   10   48 1    
    52   10   49 1    
    53   11   50 1    
    54   12   51 1    
    55   16   52 1    
    56   19   53 1    
    57   21   54 1    
    58   22   55 1    
    59   22   56 1    
    60   22   57 1    
    61   24   58 1    
    62   24   59 1    
    63   24   60 1    
    64   25   61 1    
    65   25   62 1    
    66   25   63 1    
    67   26   64 1    
    68   26   65 1    
    69   26   66 1    
    70   27   67 1    
    71   29   68 1    
    72   30   69 1    
    73   31   70 1    
    74   38   71 1    
    75   39   72 1    
    76   41   73 1    
    77   42   74 1    
    78   40   75 1    
@<TRIPOS>SUBSTRUCTURE
     1 AMINO      27 PERM              0 ****  ****    1  
     2 ISOPROPYL    10 PERM              0 ****  ****    1 ROOT 
@<TRIPOS>NORMAL
@<TRIPOS>FF_PBC
FORCE_FIELD_SETUP_FEATURE Force Field Setup information
v1.0  0 0.000000 0.000000 0.000000 0.000000 0.000000 0.000000 NONE 0 0 0 0 1 0 0 0 0 0 0 0 0
