#	Name:			B17
#	Creating user name:	ccollar
#	Creation time:		Mon Jan 17 12:02:28 2005

#	Modifying user name:	ccollar
#	Modification time:	Mon Jan 17 12:03:20 2005

@<TRIPOS>MOLECULE
B17
   75    78     2     1     0
SMALL
GASTEIGER


@<TRIPOS>ATOM
      1 C1         11.240065   15.669241    5.672101 C.ar      2 ISOPROPYL   -0.047108 
      2 C2         12.142274   15.690475    6.918191 C.3       2 ISOPROPYL   -0.025055 
      3 C3         11.745828   16.781594    7.958551 C.3       2 ISOPROPYL   -0.019042 
      4 C4         12.140415   18.263484    7.642860 C.3       2 ISOPROPYL    0.082569 
      5 C5         11.596479   18.789944    6.290561 C.3       2 ISOPROPYL    0.024442 
      6 C6         10.100595   18.741909    6.356228 C.2       2 ISOPROPYL    0.072124 
      7 C7          9.466122   19.002789    7.508129 C.2       2 ISOPROPYL    0.109797 
      8 C8         10.299684   19.317490    8.689222 C.2       2 ISOPROPYL    0.303197 
      9 O9         11.626092   19.090911    8.710545 O.3       2 ISOPROPYL   -0.304231 
     10 C1         13.683097   18.450969    7.679427 C.3       2 ISOPROPYL   -0.034831 
     11 C11         9.871964   15.407603    5.805628 C.ar      2 ISOPROPYL   -0.056142 
     12 C12         9.019053   15.462009    4.699793 C.ar      2 ISOPROPYL   -0.031682 
     13 O13         9.780625   19.813061    9.675386 O.2       2 ISOPROPYL   -0.258547 
     14 S14         7.680519   19.019715    7.685541 S.3       2 ISOPROPYL   -0.081047 
     15 C15         7.377596   17.314090    8.085346 C.ar      2 ISOPROPYL    0.017015 
     16 C16         8.118297   16.734683    9.119099 C.ar      2 ISOPROPYL   -0.042990 
     17 C17         8.141866   15.349944    9.300153 C.ar      2 ISOPROPYL   -0.027032 
     18 C18         7.439599   14.548621    8.393646 C.ar      2 ISOPROPYL    0.051284 
     19 C19         6.631609   15.156981    7.426513 C.ar      2 ISOPROPYL   -0.034329 
     20 C20         6.425008   16.544740    7.395035 C.ar      2 ISOPROPYL   -0.026451 
     21 O21         9.481065   18.443160    5.206165 O.3       2 ISOPROPYL   -0.362719 
     22 C22         8.926157   14.739159   10.469242 C.3       2 ISOPROPYL   -0.037884 
     23 C23         5.188678   17.154438    6.662048 C.3       2 ISOPROPYL   -0.011564 
     24 C24         4.437185   18.105783    7.643664 C.3       2 ISOPROPYL   -0.056009 
     25 C25         4.148614   16.063381    6.246587 C.3       2 ISOPROPYL   -0.056009 
     26 C26         5.586587   17.911461    5.361189 C.3       2 ISOPROPYL   -0.056009 
     27 N1          7.548831   13.131328    8.453612 N.am      1 AMINO      -0.215992 
     28 C28         9.534506   15.755845    3.432158 C.ar      2 ISOPROPYL    0.072598 
     29 C29        10.909152   15.954807    3.284390 C.ar      2 ISOPROPYL   -0.031682 
     30 C30        11.760111   15.894826    4.392028 C.ar      2 ISOPROPYL   -0.056142 
     31 O31         8.705344   15.850796    2.310379 O.3       2 ISOPROPYL   -0.359832 
     32 H1         13.203558   15.778956    6.646347 H         2 ISOPROPYL    0.031407 
     33 H2         12.015322   14.699992    7.385897 H         2 ISOPROPYL    0.031407 
     34 S34         6.362246   12.112134    7.959833 S.o2      1 AMINO       0.072354 
     35 O35         6.467195   11.997466    6.518652 O.2       1 AMINO      -0.149969 
     36 O36         6.483807   10.904981    8.752004 O.2       1 AMINO      -0.149969 
     37 C37         4.781961   12.825709    8.344490 C.ar      1 AMINO       0.108582 
     38 C38         3.682679   12.577988    7.517374 C.ar      1 AMINO      -0.033702 
     39 C39         2.439580   13.144217    7.815291 C.ar      1 AMINO      -0.041531 
     40 C40         2.295454   13.959113    8.941729 C.ar      1 AMINO       0.041088 
     41 C41         3.387146   14.184727    9.784782 C.ar      1 AMINO      -0.041531 
     42 C42         4.625248   13.603989    9.495168 C.ar      1 AMINO      -0.033702 
     43 H3         12.227418   16.524516    8.916318 H         2 ISOPROPYL    0.029623 
     44 H4         10.665757   16.710773    8.134733 H         2 ISOPROPYL    0.029623 
     45 H5         11.994463   18.214154    5.447670 H         2 ISOPROPYL    0.036113 
     46 H6         11.886201   19.841695    6.143509 H         2 ISOPROPYL    0.036113 
     47 H7         13.927992   19.521726    7.605335 H         2 ISOPROPYL    0.025757 
     48 H8         14.175889   17.931904    6.845017 H         2 ISOPROPYL    0.025757 
     49 H9         14.098578   18.075248    8.626706 H         2 ISOPROPYL    0.025757 
     50 H10         9.463847   15.153182    6.774679 H         2 ISOPROPYL    0.062108 
     51 H11         7.959777   15.272853    4.833043 H         2 ISOPROPYL    0.064328 
     52 H12         8.685342   17.372432    9.787370 H         2 ISOPROPYL    0.063191 
     53 H13         6.173016   14.517374    6.689161 H         2 ISOPROPYL    0.063973 
     54 H14         8.534180   18.396833    5.232269 H         2 ISOPROPYL    0.216929 
     55 H15         9.159964   15.491690   11.237263 H         2 ISOPROPYL    0.027812 
     56 H16         9.870601   14.320571   10.090399 H         2 ISOPROPYL    0.027812 
     57 H17         8.335627   13.942079   10.945748 H         2 ISOPROPYL    0.027812 
     58 H18         5.044236   18.963720    7.955714 H         2 ISOPROPYL    0.023804 
     59 H19         4.145930   17.550244    8.548880 H         2 ISOPROPYL    0.023804 
     60 H20         3.525942   18.513187    7.179416 H         2 ISOPROPYL    0.023804 
     61 H21         3.896424   15.431835    7.109606 H         2 ISOPROPYL    0.023804 
     62 H22         4.520978   15.430199    5.427226 H         2 ISOPROPYL    0.023804 
     63 H23         3.212194   16.516855    5.886410 H         2 ISOPROPYL    0.023804 
     64 H24         4.690675   18.179481    4.780248 H         2 ISOPROPYL    0.023804 
     65 H25         6.222794   17.268392    4.734793 H         2 ISOPROPYL    0.023804 
     66 H26         6.118848   18.847919    5.562462 H         2 ISOPROPYL    0.023804 
     67 H27         8.390166   12.706896    8.786850 H         1 AMINO       0.173687 
     68 H28        11.312593   16.158095    2.298115 H         2 ISOPROPYL    0.064328 
     69 H29        12.827545   16.029742    4.249467 H         2 ISOPROPYL    0.062108 
     70 H30         7.778752   15.751161    2.496883 H         2 ISOPROPYL    0.217313 
     71 H31         3.796949   11.946263    6.642774 H         1 AMINO       0.063750 
     72 H32         1.586071   12.954604    7.172408 H         1 AMINO       0.063263 
     73 H33         3.271202   14.810782   10.663614 H         1 AMINO       0.063263 
     74 H34         5.465551   13.757023   10.163881 H         1 AMINO       0.063750 
     75 Cl79        0.748088   14.698793    9.295797 Cl        1 AMINO      -0.083540 
@<TRIPOS>BOND
     1    2    1 1    
     2    2    3 1    
     3    3    4 1    
     4    4    5 1    
     5    5    6 1    
     6    6    7 2    
     7    7    8 1    
     8    8    9 1    
     9    4    9 1    
    10    2   32 1    
    11    1   11 ar   
    12   11   12 ar   
    13    8   13 2    
    14    7   14 1    
    15   14   15 1    
    16   15   16 ar   
    17   16   17 ar   
    18   17   18 ar   
    19   18   19 ar   
    20   19   20 ar   
    21   15   20 ar   
    22    6   21 1    
    23   17   22 1    
    24   20   23 1    
    25   23   24 1    
    26   23   25 1    
    27   23   26 1    
    28   27   34 1    
    29   12   28 ar   
    30   28   29 ar   
    31   29   30 ar   
    32    1   30 ar   
    33   28   31 1    
    34    2   33 1    
    35    4   10 1    
    36   34   35 2    
    37   18   27 1    
    38   34   36 2    
    39   34   37 1    
    40   37   38 ar   
    41   38   39 ar   
    42   39   40 ar   
    43   40   41 ar   
    44   41   42 ar   
    45   37   42 ar   
    46    3   43 1    
    47    3   44 1    
    48    5   45 1    
    49    5   46 1    
    50   10   47 1    
    51   10   48 1    
    52   10   49 1    
    53   11   50 1    
    54   12   51 1    
    55   16   52 1    
    56   19   53 1    
    57   21   54 1    
    58   22   55 1    
    59   22   56 1    
    60   22   57 1    
    61   24   58 1    
    62   24   59 1    
    63   24   60 1    
    64   25   61 1    
    65   25   62 1    
    66   25   63 1    
    67   26   64 1    
    68   26   65 1    
    69   26   66 1    
    70   27   67 1    
    71   29   68 1    
    72   30   69 1    
    73   31   70 1    
    74   38   71 1    
    75   39   72 1    
    76   41   73 1    
    77   42   74 1    
    78   40   75 1    
@<TRIPOS>SUBSTRUCTURE
     1 AMINO      27 PERM              0 ****  ****    1  
     2 ISOPROPYL    10 PERM              0 ****  ****    1 ROOT 
@<TRIPOS>NORMAL
@<TRIPOS>FF_PBC
FORCE_FIELD_SETUP_FEATURE Force Field Setup information
v1.0  0 0.000000 0.000000 0.000000 0.000000 0.000000 0.000000 NONE 0 0 0 0 1 0 0 0 0 0 0 0 0
