#	Name:			B18
#	Creating user name:	ccollar
#	Creation time:		Mon Jan 17 12:03:49 2005

#	Modifying user name:	ccollar
#	Modification time:	Mon Jan 17 12:04:00 2005

@<TRIPOS>MOLECULE
B18
   78    81     2     1     0
SMALL
GASTEIGER


@<TRIPOS>ATOM
      1 C1         11.240875   15.683777    5.678984 C.ar      2 ISOPROPYL   -0.047108 
      2 C2         12.166164   15.712156    6.908266 C.3       2 ISOPROPYL   -0.025055 
      3 C3         11.770519   16.790349    7.962435 C.3       2 ISOPROPYL   -0.019042 
      4 C4         12.162097   18.276231    7.661809 C.3       2 ISOPROPYL    0.082569 
      5 C5         11.639944   18.804669    6.301998 C.3       2 ISOPROPYL    0.024442 
      6 C6         10.143506   18.745864    6.340750 C.2       2 ISOPROPYL    0.072124 
      7 C7          9.486390   18.998844    7.481720 C.2       2 ISOPROPYL    0.109797 
      8 C8         10.297510   19.318473    8.677202 C.2       2 ISOPROPYL    0.303197 
      9 O9         11.624268   19.097358    8.722692 O.3       2 ISOPROPYL   -0.304231 
     10 C1         13.702944   18.472018    7.727020 C.3       2 ISOPROPYL   -0.034831 
     11 C11         9.881116   15.391898    5.835193 C.ar      2 ISOPROPYL   -0.056142 
     12 C12         9.007438   15.438902    4.745276 C.ar      2 ISOPROPYL   -0.031682 
     13 O13         9.758819   19.813003    9.653319 O.2       2 ISOPROPYL   -0.258547 
     14 S14         7.697261   19.000550    7.628466 S.3       2 ISOPROPYL   -0.081047 
     15 C15         7.392890   17.296502    8.036286 C.ar      2 ISOPROPYL    0.017015 
     16 C16         8.130366   16.727531    9.078472 C.ar      2 ISOPROPYL   -0.042990 
     17 C17         8.142112   15.347034    9.288050 C.ar      2 ISOPROPYL   -0.027032 
     18 C18         7.406878   14.537489    8.416903 C.ar      2 ISOPROPYL    0.051284 
     19 C19         6.618408   15.132272    7.426160 C.ar      2 ISOPROPYL   -0.034329 
     20 C20         6.441458   16.522859    7.347421 C.ar      2 ISOPROPYL   -0.026451 
     21 O21         9.547292   18.446365    5.178773 O.3       2 ISOPROPYL   -0.362719 
     22 C22         8.945315   14.746525   10.449469 C.3       2 ISOPROPYL   -0.037884 
     23 C23         5.232250   17.132864    6.568295 C.3       2 ISOPROPYL   -0.011564 
     24 C24         4.444665   18.073923    7.530825 C.3       2 ISOPROPYL   -0.056009 
     25 C25         4.209994   16.045116    6.103703 C.3       2 ISOPROPYL   -0.056009 
     26 C26         5.668024   17.899610    5.284222 C.3       2 ISOPROPYL   -0.056009 
     27 N1          7.456122   13.121844    8.540510 N.am      1 AMINO      -0.215992 
     28 C28         9.492014   15.759463    3.471973 C.ar      2 ISOPROPYL    0.072598 
     29 C29        10.859052   15.989148    3.300985 C.ar      2 ISOPROPYL   -0.031682 
     30 C30        11.731891   15.931605    4.391558 C.ar      2 ISOPROPYL   -0.056142 
     31 O31         8.639637   15.851098    2.367413 O.3       2 ISOPROPYL   -0.359832 
     32 H1         13.220549   15.819713    6.617260 H         2 ISOPROPYL    0.031407 
     33 H2         12.063639   14.716615    7.371179 H         2 ISOPROPYL    0.031407 
     34 S34         6.174000   12.157848    8.204316 S.o2      1 AMINO       0.072353 
     35 O35         6.207504   11.889833    6.780320 O.2       1 AMINO      -0.149969 
     36 O36         6.244534   11.031132    9.112443 O.2       1 AMINO      -0.149969 
     37 C37         4.658862   13.013027    8.561560 C.ar      1 AMINO       0.108519 
     38 C38         3.509015   12.742604    7.815118 C.ar      1 AMINO      -0.034549 
     39 C39         2.328349   13.450316    8.060889 C.ar      1 AMINO      -0.048262 
     40 C40         2.294328   14.443052    9.047861 C.ar      1 AMINO       0.054923 
     41 C41         3.427698   14.660505    9.839285 C.ar      1 AMINO      -0.048262 
     42 C42         4.598698   13.932082    9.612509 C.ar      1 AMINO      -0.034549 
     43 H3         12.253023   16.523800    8.917096 H         2 ISOPROPYL    0.029623 
     44 H4         10.690860   16.715402    8.138642 H         2 ISOPROPYL    0.029623 
     45 H5         12.058188   18.233712    5.465594 H         2 ISOPROPYL    0.036113 
     46 H6         11.925316   19.858806    6.163694 H         2 ISOPROPYL    0.036113 
     47 H7         13.943690   19.543860    7.655191 H         2 ISOPROPYL    0.025757 
     48 H8         14.214637   17.953365    6.903865 H         2 ISOPROPYL    0.025757 
     49 H9         14.102357   18.100972    8.683018 H         2 ISOPROPYL    0.025757 
     50 H10         9.495693   15.118899    6.809034 H         2 ISOPROPYL    0.062108 
     51 H11         7.955726   15.222853    4.894585 H         2 ISOPROPYL    0.064328 
     52 H12         8.704546   17.371141    9.734474 H         2 ISOPROPYL    0.063191 
     53 H13         6.151267   14.471813    6.711983 H         2 ISOPROPYL    0.063973 
     54 H14         8.600384   18.396185    5.187066 H         2 ISOPROPYL    0.216929 
     55 H15         9.226928   15.512161   11.187899 H         2 ISOPROPYL    0.027812 
     56 H16         9.863701   14.288396   10.052790 H         2 ISOPROPYL    0.027812 
     57 H17         8.346983   13.981047   10.966332 H         2 ISOPROPYL    0.027812 
     58 H18         5.044309   18.924719    7.876170 H         2 ISOPROPYL    0.023804 
     59 H19         4.116681   17.509336    8.417790 H         2 ISOPROPYL    0.023804 
     60 H20         3.553177   18.489167    7.036153 H         2 ISOPROPYL    0.023804 
     61 H21         3.912901   15.413937    6.951459 H         2 ISOPROPYL    0.023804 
     62 H22         4.623038   15.411877    5.303827 H         2 ISOPROPYL    0.023804 
     63 H23         3.292565   16.500863    5.699920 H         2 ISOPROPYL    0.023804 
     64 H24         4.791932   18.155083    4.668423 H         2 ISOPROPYL    0.023804 
     65 H25         6.336688   17.267381    4.681457 H         2 ISOPROPYL    0.023804 
     66 H26         6.174915   18.845931    5.502021 H         2 ISOPROPYL    0.023804 
     67 H27         8.299046   12.670039    8.831472 H         1 AMINO       0.173687 
     68 H28        11.239329   16.214102    2.310217 H         2 ISOPROPYL    0.064328 
     69 H29        12.794015   16.085275    4.229512 H         2 ISOPROPYL    0.062108 
     70 H30         7.721516   15.705744    2.565336 H         2 ISOPROPYL    0.217313 
     71 H31         3.536867   11.982642    7.041081 H         1 AMINO       0.063718 
     72 H32         1.442236   13.224039    7.476387 H         1 AMINO       0.062360 
     73 H33         3.400946   15.398984   10.634874 H         1 AMINO       0.062360 
     74 H34         5.461984   14.081294   10.252171 H         1 AMINO       0.063718 
     75 C79         1.044505   15.301022    9.278854 C.3       1 AMINO       0.417422 
     76 F82         1.404952   16.610732    9.358024 F         1 AMINO      -0.165903 
     77 F83         0.458567   14.930052   10.448437 F         1 AMINO      -0.165903 
     78 F84         0.145693   15.158668    8.267290 F         1 AMINO      -0.165903 
@<TRIPOS>BOND
     1    2    1 1    
     2    2    3 1    
     3    3    4 1    
     4    4    5 1    
     5    5    6 1    
     6    6    7 2    
     7    7    8 1    
     8    8    9 1    
     9    4    9 1    
    10    2   32 1    
    11    1   11 ar   
    12   11   12 ar   
    13    8   13 2    
    14    7   14 1    
    15   14   15 1    
    16   15   16 ar   
    17   16   17 ar   
    18   17   18 ar   
    19   18   19 ar   
    20   19   20 ar   
    21   15   20 ar   
    22    6   21 1    
    23   17   22 1    
    24   20   23 1    
    25   23   24 1    
    26   23   25 1    
    27   23   26 1    
    28   27   34 1    
    29   12   28 ar   
    30   28   29 ar   
    31   29   30 ar   
    32    1   30 ar   
    33   28   31 1    
    34    2   33 1    
    35    4   10 1    
    36   34   35 2    
    37   18   27 1    
    38   34   36 2    
    39   34   37 1    
    40   37   38 ar   
    41   38   39 ar   
    42   39   40 ar   
    43   40   41 ar   
    44   41   42 ar   
    45   37   42 ar   
    46    3   43 1    
    47    3   44 1    
    48    5   45 1    
    49    5   46 1    
    50   10   47 1    
    51   10   48 1    
    52   10   49 1    
    53   11   50 1    
    54   12   51 1    
    55   16   52 1    
    56   19   53 1    
    57   21   54 1    
    58   22   55 1    
    59   22   56 1    
    60   22   57 1    
    61   24   58 1    
    62   24   59 1    
    63   24   60 1    
    64   25   61 1    
    65   25   62 1    
    66   25   63 1    
    67   26   64 1    
    68   26   65 1    
    69   26   66 1    
    70   27   67 1    
    71   29   68 1    
    72   30   69 1    
    73   31   70 1    
    74   38   71 1    
    75   39   72 1    
    76   41   73 1    
    77   42   74 1    
    78   40   75 1    
    79   75   76 1    
    80   75   77 1    
    81   75   78 1    
@<TRIPOS>SUBSTRUCTURE
     1 AMINO      27 PERM              0 ****  ****    1  
     2 ISOPROPYL    10 PERM              0 ****  ****    1 ROOT 
@<TRIPOS>NORMAL
@<TRIPOS>FF_PBC
FORCE_FIELD_SETUP_FEATURE Force Field Setup information
v1.0  0 0.000000 0.000000 0.000000 0.000000 0.000000 0.000000 NONE 0 0 0 0 1 0 0 0 0 0 0 0 0
