#	Name:			B19
#	Creating user name:	ccollar
#	Creation time:		Mon Jan 17 12:04:22 2005

#	Modifying user name:	ccollar
#	Modification time:	Mon Jan 17 12:04:34 2005

@<TRIPOS>MOLECULE
B19
   76    79     3     1     0
SMALL
GASTEIGER


@<TRIPOS>ATOM
      1 C1         11.241361   15.667663    5.671748 C.ar      2 ISOPROPYL   -0.047108 
      2 C2         12.143582   15.689486    6.917787 C.3       2 ISOPROPYL   -0.025055 
      3 C3         11.745984   16.780698    7.957740 C.3       2 ISOPROPYL   -0.019042 
      4 C4         12.139523   18.262847    7.641852 C.3       2 ISOPROPYL    0.082569 
      5 C5         11.594657   18.789082    6.289777 C.3       2 ISOPROPYL    0.024442 
      6 C6         10.098790   18.741975    6.356389 C.2       2 ISOPROPYL    0.072124 
      7 C7          9.465067   19.002820    7.508697 C.2       2 ISOPROPYL    0.109797 
      8 C8         10.299260   19.316435    8.689658 C.2       2 ISOPROPYL    0.303197 
      9 O9         11.625670   19.089827    8.710130 O.3       2 ISOPROPYL   -0.304231 
     10 C1         13.682174   18.450964    7.677539 C.3       2 ISOPROPYL   -0.034831 
     11 C11         9.873343   15.405989    5.805585 C.ar      2 ISOPROPYL   -0.056142 
     12 C12         9.019749   15.462607    4.700442 C.ar      2 ISOPROPYL   -0.031682 
     13 O13         9.780712   19.811188    9.676513 O.2       2 ISOPROPYL   -0.258547 
     14 S14         7.679593   19.020924    7.686826 S.3       2 ISOPROPYL   -0.081047 
     15 C15         7.376481   17.315372    8.086872 C.ar      2 ISOPROPYL    0.017015 
     16 C16         8.116615   16.735859    9.120840 C.ar      2 ISOPROPYL   -0.042990 
     17 C17         8.142004   15.350894    9.299971 C.ar      2 ISOPROPYL   -0.027032 
     18 C18         7.442995   14.549390    8.390830 C.ar      2 ISOPROPYL    0.051284 
     19 C19         6.633022   15.158244    7.425578 C.ar      2 ISOPROPYL   -0.034329 
     20 C20         6.424373   16.545733    7.396374 C.ar      2 ISOPROPYL   -0.026451 
     21 O21         9.478463   18.444143    5.206478 O.3       2 ISOPROPYL   -0.362719 
     22 C22         8.925753   14.741240   10.470090 C.3       2 ISOPROPYL   -0.037884 
     23 C23         5.186817   17.155067    6.665400 C.3       2 ISOPROPYL   -0.011564 
     24 C24         4.437636   18.108992    7.646356 C.3       2 ISOPROPYL   -0.056009 
     25 C25         4.145384   16.063585    6.254613 C.3       2 ISOPROPYL   -0.056009 
     26 C26         5.583016   17.909152    5.362468 C.3       2 ISOPROPYL   -0.056009 
     27 N1          7.558612   13.132130    8.445998 N.am      1 AMINO      -0.215992 
     28 C28         9.534686   15.757666    3.432872 C.ar      2 ISOPROPYL    0.072598 
     29 C29        10.909549   15.954562    3.284347 C.ar      2 ISOPROPYL   -0.031682 
     30 C30        11.761066   15.892952    4.391471 C.ar      2 ISOPROPYL   -0.056142 
     31 O31         8.704745   15.855828    2.311958 O.3       2 ISOPROPYL   -0.359832 
     32 H1         13.204821   15.778579    6.645835 H         2 ISOPROPYL    0.031407 
     33 H2         12.017316   14.699064    7.385787 H         2 ISOPROPYL    0.031407 
     34 S34         6.390186   12.101322    7.930605 S.o2      1 AMINO       0.072354 
     35 O35         6.489214   12.016748    6.486909 O.2       1 AMINO      -0.149969 
     36 O36         6.523317   10.882124    8.702167 O.2       1 AMINO      -0.149969 
     37 C37         4.815595   12.812007    8.344114 C.ar      1 AMINO       0.108569 
     38 C38         3.710069   12.587726    7.518726 C.ar      1 AMINO      -0.033864 
     39 C39         2.469986   13.148934    7.838247 C.ar      1 AMINO      -0.042495 
     40 C40         2.334517   13.937461    8.985153 C.ar      1 AMINO       0.051887 
     41 C41         3.433615   14.140462    9.825370 C.ar      1 AMINO      -0.042495 
     42 C42         4.668031   13.563040    9.513867 C.ar      1 AMINO      -0.033864 
     43 H3         12.227645   16.524276    8.915665 H         2 ISOPROPYL    0.029623 
     44 H4         10.665887   16.709423    8.133833 H         2 ISOPROPYL    0.029623 
     45 H5         11.991830   18.212873    5.446775 H         2 ISOPROPYL    0.036113 
     46 H6         11.884727   19.840676    6.142125 H         2 ISOPROPYL    0.036113 
     47 H7         13.926696   19.521815    7.603628 H         2 ISOPROPYL    0.025757 
     48 H8         14.174565   17.932360    6.842608 H         2 ISOPROPYL    0.025757 
     49 H9         14.098438   18.075079    8.624411 H         2 ISOPROPYL    0.025757 
     50 H10         9.465936   15.149845    6.774464 H         2 ISOPROPYL    0.062108 
     51 H11         7.960435   15.274189    4.834121 H         2 ISOPROPYL    0.064328 
     52 H12         8.681938   17.373779    9.790454 H         2 ISOPROPYL    0.063191 
     53 H13         6.174451   14.519904    6.687357 H         2 ISOPROPYL    0.063973 
     54 H14         8.531527   18.398961    5.232714 H         2 ISOPROPYL    0.216929 
     55 H15         9.153794   15.493475   11.240164 H         2 ISOPROPYL    0.027812 
     56 H16         9.873387   14.328304   10.092917 H         2 ISOPROPYL    0.027812 
     57 H17         8.338395   13.940332   10.944040 H         2 ISOPROPYL    0.027812 
     58 H18         5.045023   18.967865    7.954931 H         2 ISOPROPYL    0.023804 
     59 H19         4.148378   17.555839    8.553596 H         2 ISOPROPYL    0.023804 
     60 H20         3.525419   18.515205    7.183076 H         2 ISOPROPYL    0.023804 
     61 H21         3.896109   15.434007    7.119942 H         2 ISOPROPYL    0.023804 
     62 H22         4.514910   15.428728    5.435226 H         2 ISOPROPYL    0.023804 
     63 H23         3.208034   16.516599    5.896269 H         2 ISOPROPYL    0.023804 
     64 H24         4.685990   18.178655    4.783905 H         2 ISOPROPYL    0.023804 
     65 H25         6.215937   17.263718    4.735115 H         2 ISOPROPYL    0.023804 
     66 H26         6.118429   18.844320    5.561499 H         2 ISOPROPYL    0.023804 
     67 H27         8.398588   12.712298    8.788239 H         1 AMINO       0.173687 
     68 H28        11.312687   16.157558    2.297884 H         2 ISOPROPYL    0.064328 
     69 H29        12.828612   16.026436    4.248369 H         2 ISOPROPYL    0.062108 
     70 H30         7.777912   15.760680    2.499523 H         2 ISOPROPYL    0.217313 
     71 H31         3.817463   11.977400    6.628077 H         1 AMINO       0.063744 
     72 H32         1.613700   12.973959    7.193951 H         1 AMINO       0.063090 
     73 H33         3.329575   14.746004   10.720637 H         1 AMINO       0.063090 
     74 H34         5.512809   13.697357   10.181056 H         1 AMINO       0.063744 
     75 C43         1.064677   14.541433    9.300318 C.1       3 CN          0.099155 
     76 N1          0.044847   15.027496    9.553170 N.1       3 CN         -0.190869 
@<TRIPOS>BOND
     1    2    1 1    
     2    2    3 1    
     3    3    4 1    
     4    4    5 1    
     5    5    6 1    
     6    6    7 2    
     7    7    8 1    
     8    8    9 1    
     9    4    9 1    
    10    2   32 1    
    11    1   11 ar   
    12   11   12 ar   
    13    8   13 2    
    14    7   14 1    
    15   14   15 1    
    16   15   16 ar   
    17   16   17 ar   
    18   17   18 ar   
    19   18   19 ar   
    20   19   20 ar   
    21   15   20 ar   
    22    6   21 1    
    23   17   22 1    
    24   20   23 1    
    25   23   24 1    
    26   23   25 1    
    27   23   26 1    
    28   27   34 1    
    29   12   28 ar   
    30   28   29 ar   
    31   29   30 ar   
    32    1   30 ar   
    33   28   31 1    
    34    2   33 1    
    35    4   10 1    
    36   34   35 2    
    37   18   27 1    
    38   34   36 2    
    39   34   37 1    
    40   37   38 ar   
    41   38   39 ar   
    42   39   40 ar   
    43   40   41 ar   
    44   41   42 ar   
    45   37   42 ar   
    46    3   43 1    
    47    3   44 1    
    48    5   45 1    
    49    5   46 1    
    50   10   47 1    
    51   10   48 1    
    52   10   49 1    
    53   11   50 1    
    54   12   51 1    
    55   16   52 1    
    56   19   53 1    
    57   21   54 1    
    58   22   55 1    
    59   22   56 1    
    60   22   57 1    
    61   24   58 1    
    62   24   59 1    
    63   24   60 1    
    64   25   61 1    
    65   25   62 1    
    66   25   63 1    
    67   26   64 1    
    68   26   65 1    
    69   26   66 1    
    70   27   67 1    
    71   29   68 1    
    72   30   69 1    
    73   31   70 1    
    74   38   71 1    
    75   39   72 1    
    76   41   73 1    
    77   42   74 1    
    78   75   76 3    
    79   40   75 1    
@<TRIPOS>SUBSTRUCTURE
     1 AMINO      27 PERM              0 ****  ****    2  
     2 ISOPROPYL    10 PERM              0 ****  ****    1 ROOT 
     3 CN         75 PERM              0 ****  ****    1  
@<TRIPOS>NORMAL
@<TRIPOS>FF_PBC
FORCE_FIELD_SETUP_FEATURE Force Field Setup information
v1.0  0 0.000000 0.000000 0.000000 0.000000 0.000000 0.000000 NONE 0 0 0 0 1 0 0 0 0 0 0 0 0
