#	Name:			B21
#	Creating user name:	ccollar
#	Creation time:		Mon Jan 17 12:11:27 2005

#	Modifying user name:	ccollar
#	Modification time:	Mon Jan 17 12:11:40 2005

@<TRIPOS>MOLECULE
B21
   82    86     2     1     0
SMALL
GASTEIGER


@<TRIPOS>ATOM
      1 C1         11.290413   15.737494    5.686899 C.ar      2 ISOPROPYL   -0.047108 
      2 C2         12.310873   15.832952    6.835724 C.3       2 ISOPROPYL   -0.025055 
      3 C3         11.892168   16.848083    7.943238 C.3       2 ISOPROPYL   -0.019042 
      4 C4         12.247713   18.354400    7.712940 C.3       2 ISOPROPYL    0.082569 
      5 C5         11.775592   18.897551    6.342468 C.3       2 ISOPROPYL    0.024442 
      6 C6         10.281989   18.788074    6.309252 C.2       2 ISOPROPYL    0.072124 
      7 C7          9.559282   18.995928    7.419899 C.2       2 ISOPROPYL    0.109797 
      8 C8         10.302093   19.311925    8.660220 C.2       2 ISOPROPYL    0.303197 
      9 O9         11.631310   19.128229    8.766639 O.3       2 ISOPROPYL   -0.304231 
     10 C1         13.776259   18.596997    7.862225 C.3       2 ISOPROPYL   -0.034831 
     11 C11         9.995664   15.273281    5.946630 C.ar      2 ISOPROPYL   -0.056142 
     12 C12         9.022706   15.261029    4.943400 C.ar      2 ISOPROPYL   -0.031682 
     13 O13         9.702751   19.769746    9.618772 O.2       2 ISOPROPYL   -0.258547 
     14 S14         7.762918   18.952669    7.478129 S.3       2 ISOPROPYL   -0.081047 
     15 C15         7.414903   17.257834    7.898770 C.ar      2 ISOPROPYL    0.017015 
     16 C16         8.168037   16.677216    8.924450 C.ar      2 ISOPROPYL   -0.042990 
     17 C17         8.206997   15.295283    9.113558 C.ar      2 ISOPROPYL   -0.027032 
     18 C18         7.324813   14.512168    8.364771 C.ar      2 ISOPROPYL    0.051284 
     19 C19         6.436241   15.127440    7.477555 C.ar      2 ISOPROPYL   -0.034329 
     20 C20         6.415571   16.513866    7.240203 C.ar      2 ISOPROPYL   -0.026451 
     21 O21         9.758269   18.493072    5.112613 O.3       2 ISOPROPYL   -0.362719 
     22 C22         9.231405   14.708981   10.092783 C.3       2 ISOPROPYL   -0.037884 
     23 C23         5.326465   17.154509    6.309889 C.3       2 ISOPROPYL   -0.011564 
     24 C24         4.506850   18.225230    7.094870 C.3       2 ISOPROPYL   -0.056009 
     25 C25         4.280611   16.117994    5.778346 C.3       2 ISOPROPYL   -0.056009 
     26 C26         5.954603   17.801991    5.037297 C.3       2 ISOPROPYL   -0.056009 
     27 N1          7.334477   13.094778    8.457793 N.am      1 AMINO      -0.215974 
     28 C28         9.345295   15.686854    3.649847 C.ar      2 ISOPROPYL    0.072598 
     29 C29        10.652825   16.091450    3.371451 C.ar      2 ISOPROPYL   -0.031682 
     30 C30        11.626768   16.089897    4.374480 C.ar      2 ISOPROPYL   -0.056142 
     31 O31         8.388948   15.713622    2.630485 O.3       2 ISOPROPYL   -0.359832 
     32 H1         13.321987   16.047224    6.462352 H         2 ISOPROPYL    0.031407 
     33 H2         12.341312   14.822882    7.277053 H         2 ISOPROPYL    0.031407 
     34 S34         6.845535   12.187673    9.777261 S.o2      1 AMINO       0.072935 
     35 O35         7.303302   10.844940    9.477443 O.2       1 AMINO      -0.149950 
     36 O36         7.411652   12.776532   10.964664 O.2       1 AMINO      -0.149950 
     37 C37         5.085218   12.070899   10.060929 C.ar      1 AMINO       0.116172 
     38 C38         4.456962   10.828640    9.909765 C.ar      1 AMINO      -0.034476 
     39 C39         3.072428   10.703092   10.052054 C.ar      1 AMINO      -0.059864 
     40 C40         2.300456   11.827312   10.351485 C.ar      1 AMINO      -0.061072 
     41 C41         2.923438   13.064646   10.529876 C.ar      1 AMINO      -0.052133 
     42 C42         4.311727   13.187318   10.407650 C.ar      1 AMINO       0.009236 
     43 C43         4.902524   14.557309   10.654299 C.2       1 AMINO      -0.009004 
     44 C44         4.595593   15.612975    9.913526 C.2       1 AMINO      -0.016562 
     45 S45         5.473253   17.024156   10.497484 S.3       1 AMINO      -0.104453 
     46 C46         6.320826   16.165840   11.837512 C.2       1 AMINO      -0.023741 
     47 C47         5.837907   14.919838   11.725829 C.2       1 AMINO      -0.046948 
     48 H3         12.374224   16.550115    8.888653 H         2 ISOPROPYL    0.029623 
     49 H4         10.812613   16.746234    8.104519 H         2 ISOPROPYL    0.029623 
     50 H5         12.252424   18.353856    5.518802 H         2 ISOPROPYL    0.036113 
     51 H6         12.033337   19.962599    6.237893 H         2 ISOPROPYL    0.036113 
     52 H7         13.987346   19.676220    7.810739 H         2 ISOPROPYL    0.025757 
     53 H8         14.349061   18.099629    7.066835 H         2 ISOPROPYL    0.025757 
     54 H9         14.133840   18.231408    8.836757 H         2 ISOPROPYL    0.025757 
     55 H10         9.740193   14.909799    6.934474 H         2 ISOPROPYL    0.062108 
     56 H11         8.020893   14.917298    5.175355 H         2 ISOPROPYL    0.064328 
     57 H12         8.744236   17.311214    9.587460 H         2 ISOPROPYL    0.063191 
     58 H13         5.760274   14.451544    6.976026 H         2 ISOPROPYL    0.063973 
     59 H14         8.816458   18.398474    5.073774 H         2 ISOPROPYL    0.216929 
     60 H15        10.173580   15.273258   10.041306 H         2 ISOPROPYL    0.027812 
     61 H16         9.461134   13.661339    9.849656 H         2 ISOPROPYL    0.027812 
     62 H17         8.844679   14.783015   11.119263 H         2 ISOPROPYL    0.027812 
     63 H18         5.127227   19.038879    7.487548 H         2 ISOPROPYL    0.023804 
     64 H19         3.988665   17.764319    7.946577 H         2 ISOPROPYL    0.023804 
     65 H20         3.747265   18.685316    6.444225 H         2 ISOPROPYL    0.023804 
     66 H21         3.770065   15.596629    6.601007 H         2 ISOPROPYL    0.023804 
     67 H22         4.758029   15.379304    5.115726 H         2 ISOPROPYL    0.023804 
     68 H23         3.492932   16.610944    5.187294 H         2 ISOPROPYL    0.023804 
     69 H24         5.189272   18.019646    4.276586 H         2 ISOPROPYL    0.023804 
     70 H25         6.686415   17.112965    4.592148 H         2 ISOPROPYL    0.023804 
     71 H26         6.441786   18.760516    5.243837 H         2 ISOPROPYL    0.023804 
     72 H27         7.547548   12.586881    7.623035 H         1 AMINO       0.173687 
     73 H28        10.907586   16.407605    2.365525 H         2 ISOPROPYL    0.064328 
     74 H29        12.645982   16.364956    4.123025 H         2 ISOPROPYL    0.062108 
     75 H30         7.573361   15.275819    2.846047 H         2 ISOPROPYL    0.217313 
     76 H31         5.040715    9.945173    9.676496 H         1 AMINO       0.063726 
     77 H32         2.597025    9.734372    9.929087 H         1 AMINO       0.061815 
     78 H33         1.222239   11.739497   10.446905 H         1 AMINO       0.061777 
     79 H34         2.321450   13.936047   10.769406 H         1 AMINO       0.062419 
     80 H35         3.904580   15.597181    9.074746 H         1 AMINO       0.069934 
     81 H36         6.619418   17.211871   11.789027 H         1 AMINO       0.069341 
     82 H37         6.147831   14.181283   12.462447 H         1 AMINO       0.062890 
@<TRIPOS>BOND
     1    2    1 1    
     2    2    3 1    
     3    3    4 1    
     4    4    5 1    
     5    5    6 1    
     6    6    7 2    
     7    7    8 1    
     8    8    9 1    
     9    4    9 1    
    10    2   32 1    
    11    1   11 ar   
    12   11   12 ar   
    13    8   13 2    
    14    7   14 1    
    15   14   15 1    
    16   15   16 ar   
    17   16   17 ar   
    18   17   18 ar   
    19   18   19 ar   
    20   19   20 ar   
    21   15   20 ar   
    22    6   21 1    
    23   17   22 1    
    24   20   23 1    
    25   23   24 1    
    26   23   25 1    
    27   23   26 1    
    28   27   34 1    
    29   12   28 ar   
    30   28   29 ar   
    31   29   30 ar   
    32    1   30 ar   
    33   28   31 1    
    34    2   33 1    
    35    4   10 1    
    36   34   35 2    
    37   18   27 1    
    38   34   36 2    
    39   34   37 1    
    40   37   38 ar   
    41   38   39 ar   
    42   39   40 ar   
    43   40   41 ar   
    44   41   42 ar   
    45   37   42 ar   
    46   42   43 1    
    47   43   44 2    
    48   44   45 1    
    49   45   46 1    
    50   46   47 2    
    51   43   47 1    
    52    3   48 1    
    53    3   49 1    
    54    5   50 1    
    55    5   51 1    
    56   10   52 1    
    57   10   53 1    
    58   10   54 1    
    59   11   55 1    
    60   12   56 1    
    61   16   57 1    
    62   19   58 1    
    63   21   59 1    
    64   22   60 1    
    65   22   61 1    
    66   22   62 1    
    67   24   63 1    
    68   24   64 1    
    69   24   65 1    
    70   25   66 1    
    71   25   67 1    
    72   25   68 1    
    73   26   69 1    
    74   26   70 1    
    75   26   71 1    
    76   27   72 1    
    77   29   73 1    
    78   30   74 1    
    79   31   75 1    
    80   38   76 1    
    81   39   77 1    
    82   40   78 1    
    83   41   79 1    
    84   44   80 1    
    85   46   81 1    
    86   47   82 1    
@<TRIPOS>SUBSTRUCTURE
     1 AMINO      27 PERM              0 ****  ****    1  
     2 ISOPROPYL    10 PERM              0 ****  ****    1 ROOT 
@<TRIPOS>NORMAL
@<TRIPOS>FF_PBC
FORCE_FIELD_SETUP_FEATURE Force Field Setup information
v1.0  0 0.000000 0.000000 0.000000 0.000000 0.000000 0.000000 NONE 0 0 0 0 1 0 0 0 0 0 0 0 0
