#	Name:			B23
#	Creating user name:	ccollar
#	Creation time:		Mon Jan 17 12:13:01 2005

#	Modifying user name:	ccollar
#	Modification time:	Mon Jan 17 12:19:47 2005

@<TRIPOS>MOLECULE
B23
   79    83     2     1     0
SMALL
GASTEIGER


@<TRIPOS>ATOM
      1 C1         11.252884   15.707209    5.688540 C.ar      2 ISOPROPYL   -0.047108 
      2 C2         12.216458   15.751097    6.887807 C.3       2 ISOPROPYL   -0.025036 
      3 C3         11.822097   16.805452    7.966305 C.3       2 ISOPROPYL   -0.018518 
      4 C4         12.195381   18.296700    7.685365 C.3       2 ISOPROPYL    0.088144 
      5 C5         11.701094   18.831785    6.320944 C.3       2 ISOPROPYL    0.024964 
      6 C6         10.204796   18.755241    6.320375 C.2       2 ISOPROPYL    0.072143 
      7 C7          9.514171   18.990753    7.445155 C.2       2 ISOPROPYL    0.109797 
      8 C8         10.290950   19.309002    8.662850 C.2       2 ISOPROPYL    0.303214 
      9 O9         11.617013   19.098388    8.741302 O.3       2 ISOPROPYL   -0.303676 
     10 C1         13.743439   18.451673    7.719540 C.3       2 ISOPROPYL   -0.010859 
     11 C11         9.911362   15.360412    5.884791 C.ar      2 ISOPROPYL   -0.056142 
     12 C12         9.001130   15.385757    4.824437 C.ar      2 ISOPROPYL   -0.031682 
     13 O13         9.723991   19.793692    9.627810 O.2       2 ISOPROPYL   -0.258547 
     14 S14         7.721375   18.975244    7.546262 S.3       2 ISOPROPYL   -0.081047 
     15 C15         7.403323   17.277794    7.973193 C.ar      2 ISOPROPYL    0.017015 
     16 C16         8.140392   16.719359    9.022528 C.ar      2 ISOPROPYL   -0.042990 
     17 C17         8.175506   15.340163    9.231281 C.ar      2 ISOPROPYL   -0.027032 
     18 C18         7.384308   14.535288    8.410489 C.ar      2 ISOPROPYL    0.051284 
     19 C19         6.565406   15.113113    7.438158 C.ar      2 ISOPROPYL   -0.034329 
     20 C20         6.442457   16.505121    7.293031 C.ar      2 ISOPROPYL   -0.026451 
     21 O21         9.643764   18.458696    5.140419 O.3       2 ISOPROPYL   -0.362719 
     22 C22         9.070277   14.745023   10.325082 C.3       2 ISOPROPYL   -0.037884 
     23 C23         5.275789   17.119897    6.451844 C.3       2 ISOPROPYL   -0.011564 
     24 C24         4.468886   18.103135    7.354014 C.3       2 ISOPROPYL   -0.056009 
     25 C25         4.249465   16.043772    5.967022 C.3       2 ISOPROPYL   -0.056009 
     26 C26         5.777130   17.847355    5.167772 C.3       2 ISOPROPYL   -0.056009 
     27 N1          7.395400   13.127359    8.564863 N.am      1 AMINO      -0.215992 
     28 C28         9.429103   15.745718    3.541463 C.ar      2 ISOPROPYL    0.072598 
     29 C29        10.778919   16.035532    3.330021 C.ar      2 ISOPROPYL   -0.031682 
     30 C30        11.690020   15.992582    4.389507 C.ar      2 ISOPROPYL   -0.056142 
     31 O31         8.537382   15.818270    2.466953 O.3       2 ISOPROPYL   -0.359832 
     32 C2         14.405189   18.599805    9.106922 C.3       2 ISOPROPYL   -0.047227 
     33 C3         14.287313   19.825300    8.172525 C.3       2 ISOPROPYL   -0.047227 
     34 S34         6.408258   12.412535    9.653351 S.o2      1 AMINO       0.072353 
     35 O35         6.032901   11.113578    9.131348 O.2       1 AMINO      -0.149969 
     36 O36         7.033053   12.496976   10.957694 O.2       1 AMINO      -0.149969 
     37 C37         4.982214   13.476184    9.635913 C.ar      1 AMINO       0.108496 
     38 C38         3.862453   13.147005    8.866373 C.ar      1 AMINO      -0.035078 
     39 C39         2.754738   13.999418    8.837707 C.ar      1 AMINO      -0.059901 
     40 C40         2.775919   15.197072    9.558367 C.ar      1 AMINO      -0.061647 
     41 C41         3.899062   15.534242   10.319076 C.ar      1 AMINO      -0.059901 
     42 C42         4.996864   14.670362   10.362726 C.ar      1 AMINO      -0.035078 
     43 H1         13.256675   15.894466    6.563274 H         2 ISOPROPYL    0.031407 
     44 H2         12.159430   14.748170    7.342443 H         2 ISOPROPYL    0.031407 
     45 H3         12.331196   16.537056    8.906736 H         2 ISOPROPYL    0.029642 
     46 H4         10.746424   16.715419    8.160358 H         2 ISOPROPYL    0.029642 
     47 H5         12.146408   18.272280    5.490526 H         2 ISOPROPYL    0.036131 
     48 H6         11.988014   19.888323    6.205735 H         2 ISOPROPYL    0.036131 
     49 H7         14.361050   17.977636    6.941027 H         2 ISOPROPYL    0.032878 
     50 H8          9.569765   15.060177    6.867045 H         2 ISOPROPYL    0.062108 
     51 H9          7.965326   15.121826    5.003898 H         2 ISOPROPYL    0.064328 
     52 H10         8.700052   17.365983    9.687805 H         2 ISOPROPYL    0.063191 
     53 H11         6.030262   14.417862    6.807670 H         2 ISOPROPYL    0.063973 
     54 H12         8.697894   18.394779    5.123282 H         2 ISOPROPYL    0.216929 
     55 H13         8.524008   14.751415   11.279470 H         2 ISOPROPYL    0.027812 
     56 H14         9.988549   15.341186   10.436494 H         2 ISOPROPYL    0.027812 
     57 H15         9.362791   13.712525   10.084365 H         2 ISOPROPYL    0.027812 
     58 H16         5.069971   18.950571    7.704417 H         2 ISOPROPYL    0.023804 
     59 H17         4.090795   17.570447    8.239538 H         2 ISOPROPYL    0.023804 
     60 H18         3.609052   18.522697    6.809507 H         2 ISOPROPYL    0.023804 
     61 H19         3.878473   15.446298    6.811947 H         2 ISOPROPYL    0.023804 
     62 H20         4.693912   15.375832    5.213222 H         2 ISOPROPYL    0.023804 
     63 H21         3.371638   16.510689    5.493836 H         2 ISOPROPYL    0.023804 
     64 H22         4.935322   18.089144    4.500813 H         2 ISOPROPYL    0.023804 
     65 H23         6.471466   17.196367    4.616993 H         2 ISOPROPYL    0.023804 
     66 H24         6.275330   18.799120    5.380558 H         2 ISOPROPYL    0.023804 
     67 H25         8.035066   12.568696    8.037324 H         1 AMINO       0.173687 
     68 H26        11.115776   16.295215    2.332078 H         2 ISOPROPYL    0.064328 
     69 H27        12.739932   16.185530    4.193449 H         2 ISOPROPYL    0.062108 
     70 H28         7.643803   15.573304    2.678283 H         2 ISOPROPYL    0.217313 
     71 H29        15.408719   18.161574    9.222968 H         2 ISOPROPYL    0.026893 
     72 H30        13.755608   18.591111    9.995722 H         2 ISOPROPYL    0.026893 
     73 H31        13.579139   20.605522    8.491089 H         2 ISOPROPYL    0.026893 
     74 H32        15.232837   20.171755    7.726592 H         2 ISOPROPYL    0.026893 
     75 H33         3.852831   12.228541    8.289507 H         1 AMINO       0.063707 
     76 H34         1.879232   13.732986    8.253210 H         1 AMINO       0.061814 
     77 H35         1.920793   15.865512    9.526707 H         1 AMINO       0.061759 
     78 H36         3.919013   16.466252   10.875921 H         1 AMINO       0.061814 
     79 H37         5.863676   14.927533   10.961441 H         1 AMINO       0.063707 
@<TRIPOS>BOND
     1    2    1 1    
     2    3    2 1    
     3    4    3 1    
     4    4    5 1    
     5    5    6 1    
     6    6    7 2    
     7    8    7 1    
     8    9    8 1    
     9    4    9 1    
    10   10   32 1    
    11    1   11 ar   
    12   11   12 ar   
    13    8   13 2    
    14    7   14 1    
    15   14   15 1    
    16   15   16 ar   
    17   16   17 ar   
    18   17   18 ar   
    19   19   18 ar   
    20   20   19 ar   
    21   15   20 ar   
    22    6   21 1    
    23   17   22 1    
    24   20   23 1    
    25   23   24 1    
    26   23   25 1    
    27   23   26 1    
    28   27   34 1    
    29   12   28 ar   
    30   29   28 ar   
    31   30   29 ar   
    32    1   30 ar   
    33   28   31 1    
    34   10   33 1    
    35   10    4 1    
    36   34   35 2    
    37   18   27 1    
    38   34   36 2    
    39   34   37 1    
    40   37   38 ar   
    41   38   39 ar   
    42   39   40 ar   
    43   40   41 ar   
    44   41   42 ar   
    45   37   42 ar   
    46   33   32 1    
    47    2   43 1    
    48    2   44 1    
    49    3   45 1    
    50    3   46 1    
    51    5   47 1    
    52    5   48 1    
    53   10   49 1    
    54   11   50 1    
    55   12   51 1    
    56   16   52 1    
    57   19   53 1    
    58   21   54 1    
    59   22   55 1    
    60   22   56 1    
    61   22   57 1    
    62   24   58 1    
    63   24   59 1    
    64   24   60 1    
    65   25   61 1    
    66   25   62 1    
    67   25   63 1    
    68   26   64 1    
    69   26   65 1    
    70   26   66 1    
    71   27   67 1    
    72   29   68 1    
    73   30   69 1    
    74   31   70 1    
    75   32   71 1    
    76   32   72 1    
    77   33   73 1    
    78   33   74 1    
    79   38   75 1    
    80   39   76 1    
    81   40   77 1    
    82   41   78 1    
    83   42   79 1    
@<TRIPOS>SUBSTRUCTURE
     1 AMINO      27 PERM              0 ****  ****    1  
     2 ISOPROPYL    10 PERM              0 ****  ****    1 ROOT 
@<TRIPOS>NORMAL
@<TRIPOS>FF_PBC
FORCE_FIELD_SETUP_FEATURE Force Field Setup information
v1.0  0 0.000000 0.000000 0.000000 0.000000 0.000000 0.000000 NONE 0 0 0 0 1 0 0 0 0 0 0 0 0
