#	Name:			B24
#	Creating user name:	ccollar
#	Creation time:		Mon Jan 17 12:21:07 2005

#	Modifying user name:	ccollar
#	Modification time:	Mon Jan 17 12:21:22 2005

@<TRIPOS>MOLECULE
B24
   85    89     2     1     0
SMALL
GASTEIGER


@<TRIPOS>ATOM
      1 C1         11.247613   15.715697    5.694824 C.ar      2 ISOPROPYL   -0.047108 
      2 C2         12.214803   15.753620    6.891452 C.3       2 ISOPROPYL   -0.025036 
      3 C3         11.870279   16.832600    7.964741 C.3       2 ISOPROPYL   -0.018518 
      4 C4         12.235242   18.334294    7.687532 C.3       2 ISOPROPYL    0.088144 
      5 C5         11.710663   18.836137    6.313416 C.3       2 ISOPROPYL    0.024964 
      6 C6         10.213515   18.753028    6.318800 C.2       2 ISOPROPYL    0.072143 
      7 C7          9.520750   18.983588    7.442533 C.2       2 ISOPROPYL    0.109797 
      8 C8         10.290286   19.302675    8.662049 C.2       2 ISOPROPYL    0.303214 
      9 O9         11.617618   19.108689    8.744259 O.3       2 ISOPROPYL   -0.303676 
     10 C1         13.759583   18.642191    7.907067 C.3       2 ISOPROPYL   -0.010879 
     11 C11         9.901101   15.392752    5.896328 C.ar      2 ISOPROPYL   -0.056142 
     12 C12         8.992480   15.407795    4.834461 C.ar      2 ISOPROPYL   -0.031682 
     13 O13         9.715090   19.774050    9.628739 O.2       2 ISOPROPYL   -0.258547 
     14 S14         7.727919   18.963421    7.541771 S.3       2 ISOPROPYL   -0.081047 
     15 C15         7.405368   17.266766    7.968021 C.ar      2 ISOPROPYL    0.017015 
     16 C16         8.146104   16.703086    9.012041 C.ar      2 ISOPROPYL   -0.042990 
     17 C17         8.171197   15.323912    9.222449 C.ar      2 ISOPROPYL   -0.027032 
     18 C18         7.370011   14.524276    8.406210 C.ar      2 ISOPROPYL    0.051284 
     19 C19         6.550128   15.107492    7.437924 C.ar      2 ISOPROPYL   -0.034329 
     20 C20         6.436171   16.500302    7.292649 C.ar      2 ISOPROPYL   -0.026451 
     21 O21         9.651315   18.457644    5.138449 O.3       2 ISOPROPYL   -0.362719 
     22 C22         9.066676   14.723374   10.312650 C.3       2 ISOPROPYL   -0.037884 
     23 C23         5.270071   17.123212    6.456370 C.3       2 ISOPROPYL   -0.011564 
     24 C24         4.471119   18.108200    7.363725 C.3       2 ISOPROPYL   -0.056009 
     25 C25         4.236588   16.053498    5.972561 C.3       2 ISOPROPYL   -0.056009 
     26 C26         5.769913   17.851612    5.171963 C.3       2 ISOPROPYL   -0.056009 
     27 N1          7.372448   13.116322    8.560831 N.am      1 AMINO      -0.215992 
     28 C28         9.424919   15.742666    3.546228 C.ar      2 ISOPROPYL    0.072598 
     29 C29        10.777456   16.016886    3.331605 C.ar      2 ISOPROPYL   -0.031682 
     30 C30        11.687592   15.979878    4.392103 C.ar      2 ISOPROPYL   -0.056142 
     31 O31         8.534967   15.805527    2.469656 O.3       2 ISOPROPYL   -0.359832 
     32 C2         14.094619   20.169875    7.951994 C.3       2 ISOPROPYL   -0.047568 
     33 C3         14.777161   18.034866    6.896032 C.3       2 ISOPROPYL   -0.047568 
     34 S34         6.385905   12.407936    9.653898 S.o2      1 AMINO       0.072353 
     35 O35         6.002284   11.110026    9.135314 O.2       1 AMINO      -0.149969 
     36 O36         7.015596   12.491408   10.955956 O.2       1 AMINO      -0.149969 
     37 C37         4.965280   13.478692    9.639368 C.ar      1 AMINO       0.108496 
     38 C38         3.842314   13.154836    8.872268 C.ar      1 AMINO      -0.035078 
     39 C39         2.738471   14.012340    8.846345 C.ar      1 AMINO      -0.059901 
     40 C40         2.766730   15.209563    9.567465 C.ar      1 AMINO      -0.061647 
     41 C41         3.893245   15.541498   10.325499 C.ar      1 AMINO      -0.059901 
     42 C42         4.987504   14.672968   10.365823 C.ar      1 AMINO      -0.035078 
     43 C43        15.905541   19.087216    6.804236 C.3       2 ISOPROPYL   -0.052707 
     44 C44        15.103899   20.404933    6.804060 C.3       2 ISOPROPYL   -0.052707 
     45 H1         13.253130   15.840431    6.553600 H         2 ISOPROPYL    0.031407 
     46 H2         12.122963   14.759778    7.360680 H         2 ISOPROPYL    0.031407 
     47 H3         12.370783   16.544831    8.903355 H         2 ISOPROPYL    0.029642 
     48 H4         10.794594   16.749594    8.163916 H         2 ISOPROPYL    0.029642 
     49 H5         12.115015   18.253212    5.482047 H         2 ISOPROPYL    0.036131 
     50 H6         11.967575   19.888041    6.130611 H         2 ISOPROPYL    0.036131 
     51 H7         14.023705   18.239921    8.901591 H         2 ISOPROPYL    0.032878 
     52 H8          9.554875   15.118561    6.884113 H         2 ISOPROPYL    0.062108 
     53 H9          7.954472   15.155245    5.016915 H         2 ISOPROPYL    0.064328 
     54 H10         8.716261   17.345187    9.672543 H         2 ISOPROPYL    0.063191 
     55 H11         6.007087   14.415652    6.810439 H         2 ISOPROPYL    0.063973 
     56 H12         8.705538   18.390243    5.121279 H         2 ISOPROPYL    0.216929 
     57 H13         8.526450   14.738884   11.270393 H         2 ISOPROPYL    0.027812 
     58 H14         9.991631   15.310698   10.415640 H         2 ISOPROPYL    0.027812 
     59 H15         9.347331   13.687091   10.074122 H         2 ISOPROPYL    0.027812 
     60 H16         5.077419   18.952039    7.713846 H         2 ISOPROPYL    0.023804 
     61 H17         4.093827   17.575331    8.249462 H         2 ISOPROPYL    0.023804 
     62 H18         3.611183   18.532946    6.823414 H         2 ISOPROPYL    0.023804 
     63 H19         3.863903   15.457038    6.817489 H         2 ISOPROPYL    0.023804 
     64 H20         4.675848   15.384106    5.217000 H         2 ISOPROPYL    0.023804 
     65 H21         3.360296   16.525859    5.501931 H         2 ISOPROPYL    0.023804 
     66 H22         4.926378   18.099645    4.509497 H         2 ISOPROPYL    0.023804 
     67 H23         6.458234   17.198925    4.615918 H         2 ISOPROPYL    0.023804 
     68 H24         6.274287   18.800227    5.383992 H         2 ISOPROPYL    0.023804 
     69 H25         8.006369   12.553536    8.030736 H         1 AMINO       0.173687 
     70 H26        11.117255   16.259518    2.330377 H         2 ISOPROPYL    0.064328 
     71 H27        12.739209   16.160954    4.193670 H         2 ISOPROPYL    0.062108 
     72 H28         7.638331   15.575415    2.684690 H         2 ISOPROPYL    0.217313 
     73 H29        14.602918   20.419334    8.900351 H         2 ISOPROPYL    0.026883 
     74 H30        13.226938   20.841998    7.869225 H         2 ISOPROPYL    0.026883 
     75 H31        14.348421   17.933537    5.889423 H         2 ISOPROPYL    0.026883 
     76 H32        15.180755   17.058467    7.211187 H         2 ISOPROPYL    0.026883 
     77 H33         3.827218   12.236585    8.295168 H         1 AMINO       0.063707 
     78 H34         1.860491   13.750148    8.263652 H         1 AMINO       0.061814 
     79 H35         1.914475   15.881765    9.538194 H         1 AMINO       0.061759 
     80 H36         3.918590   16.473080   10.882823 H         1 AMINO       0.061814 
     81 H37         5.857439   14.926530   10.961583 H         1 AMINO       0.063707 
     82 H38        16.535324   18.970196    5.906626 H         2 ISOPROPYL    0.026538 
     83 H39        16.547277   19.038121    7.700440 H         2 ISOPROPYL    0.026538 
     84 H40        14.569550   20.515523    5.845332 H         2 ISOPROPYL    0.026538 
     85 H41        15.739545   21.292236    6.960593 H         2 ISOPROPYL    0.026538 
@<TRIPOS>BOND
     1    2    1 1    
     2    3    2 1    
     3    4    3 1    
     4    4    5 1    
     5    5    6 1    
     6    6    7 2    
     7    8    7 1    
     8    9    8 1    
     9    4    9 1    
    10   10   32 1    
    11    1   11 ar   
    12   11   12 ar   
    13    8   13 2    
    14    7   14 1    
    15   14   15 1    
    16   15   16 ar   
    17   16   17 ar   
    18   17   18 ar   
    19   19   18 ar   
    20   20   19 ar   
    21   15   20 ar   
    22    6   21 1    
    23   17   22 1    
    24   20   23 1    
    25   23   24 1    
    26   23   25 1    
    27   23   26 1    
    28   27   34 1    
    29   12   28 ar   
    30   29   28 ar   
    31   30   29 ar   
    32    1   30 ar   
    33   28   31 1    
    34   10   33 1    
    35   10    4 1    
    36   34   35 2    
    37   18   27 1    
    38   34   36 2    
    39   34   37 1    
    40   37   38 ar   
    41   38   39 ar   
    42   39   40 ar   
    43   40   41 ar   
    44   41   42 ar   
    45   37   42 ar   
    46   33   43 1    
    47   43   44 1    
    48   32   44 1    
    49    2   45 1    
    50    2   46 1    
    51    3   47 1    
    52    3   48 1    
    53    5   49 1    
    54    5   50 1    
    55   10   51 1    
    56   11   52 1    
    57   12   53 1    
    58   16   54 1    
    59   19   55 1    
    60   21   56 1    
    61   22   57 1    
    62   22   58 1    
    63   22   59 1    
    64   24   60 1    
    65   24   61 1    
    66   24   62 1    
    67   25   63 1    
    68   25   64 1    
    69   25   65 1    
    70   26   66 1    
    71   26   67 1    
    72   26   68 1    
    73   27   69 1    
    74   29   70 1    
    75   30   71 1    
    76   31   72 1    
    77   32   73 1    
    78   32   74 1    
    79   33   75 1    
    80   33   76 1    
    81   38   77 1    
    82   39   78 1    
    83   40   79 1    
    84   41   80 1    
    85   42   81 1    
    86   43   82 1    
    87   43   83 1    
    88   44   84 1    
    89   44   85 1    
@<TRIPOS>SUBSTRUCTURE
     1 AMINO      27 PERM              0 ****  ****    1  
     2 ISOPROPYL    10 PERM              0 ****  ****    1 ROOT 
@<TRIPOS>NORMAL
@<TRIPOS>FF_PBC
FORCE_FIELD_SETUP_FEATURE Force Field Setup information
v1.0  0 0.000000 0.000000 0.000000 0.000000 0.000000 0.000000 NONE 0 0 0 0 1 0 0 0 0 0 0 0 0
