#	Name:			B25
#	Creating user name:	ccollar
#	Creation time:		Mon Jan 17 12:22:00 2005

#	Modifying user name:	ccollar
#	Modification time:	Mon Jan 17 12:22:32 2005

@<TRIPOS>MOLECULE
B25
   67    69     2     1     0
SMALL
GASTEIGER


@<TRIPOS>ATOM
      1 C1         11.233676   15.743914    5.683971 C.ar      2 ISOPROPYL   -0.047264 
      2 C2         12.209618   15.784856    6.872732 C.3       2 ISOPROPYL   -0.025039 
      3 C3         11.952752   16.890836    7.948661 C.3       2 ISOPROPYL   -0.018536 
      4 C4         12.259151   18.399506    7.634268 C.3       2 ISOPROPYL    0.087645 
      5 C5         11.620532   18.854064    6.291388 C.3       2 ISOPROPYL    0.024946 
      6 C6         10.117245   18.763628    6.396423 C.2       2 ISOPROPYL    0.072142 
      7 C7          9.526274   19.006258    7.568984 C.2       2 ISOPROPYL    0.109797 
      8 C8         10.360801   19.319306    8.741899 C.2       2 ISOPROPYL    0.303213 
      9 O9         11.692769   19.163032    8.728544 O.3       2 ISOPROPYL   -0.303695 
     10 C1         13.783171   18.779618    7.761904 C.3       2 ISOPROPYL   -0.016541 
     11 C11         9.884433   15.441915    5.896577 C.ar      2 ISOPROPYL   -0.058572 
     12 C12         8.995356   15.356449    4.821759 C.ar      2 ISOPROPYL   -0.061501 
     13 O13         9.838376   19.752009    9.755512 O.2       2 ISOPROPYL   -0.258547 
     14 S14         7.746977   19.004505    7.741546 S.3       2 ISOPROPYL   -0.081047 
     15 C15         7.440278   17.277865    8.010737 C.ar      2 ISOPROPYL    0.016996 
     16 C16         8.137182   16.660697    9.054986 C.ar      2 ISOPROPYL   -0.043308 
     17 C17         8.101823   15.277637    9.234912 C.ar      2 ISOPROPYL   -0.031807 
     18 C18         7.328498   14.519832    8.356718 C.ar      2 ISOPROPYL    0.016184 
     19 C19         6.570575   15.151906    7.366297 C.ar      2 ISOPROPYL   -0.039119 
     20 C20         6.530634   16.549869    7.217843 C.ar      2 ISOPROPYL   -0.026768 
     21 O21         9.385585   18.478116    5.312068 O.3       2 ISOPROPYL   -0.362719 
     22 C22         8.891203   14.586655   10.351836 C.3       2 ISOPROPYL   -0.038203 
     23 C23         5.505705   17.222083    6.241163 C.3       2 ISOPROPYL   -0.011574 
     24 C24         4.586244   18.189927    7.048330 C.3       2 ISOPROPYL   -0.056009 
     25 C25         4.539636   16.192710    5.564901 C.3       2 ISOPROPYL   -0.056009 
     26 C26         6.204556   17.980681    5.069276 C.3       2 ISOPROPYL   -0.056009 
     27 N1          7.320195   13.110552    8.473258 N.3       1 AMINO      -0.302036 
     28 C28         9.438591   15.618135    3.523256 C.ar      2 ISOPROPYL   -0.061742 
     29 C29        10.783270   15.924431    3.300533 C.ar      2 ISOPROPYL   -0.061501 
     30 C30        11.677124   15.971473    4.374337 C.ar      2 ISOPROPYL   -0.058572 
     31 H1         13.233352   15.795620    6.490064 H         2 ISOPROPYL    0.031407 
     32 C2         14.041619   20.301414    7.535298 C.3       2 ISOPROPYL   -0.060022 
     33 C3         14.786860   17.971716    6.891032 C.3       2 ISOPROPYL   -0.060022 
     34 H2         12.085282   14.807214    7.368201 H         2 ISOPROPYL    0.031407 
     35 H3         12.544931   16.632540    8.841588 H         2 ISOPROPYL    0.029641 
     36 H4         10.898511   16.788638    8.241234 H         2 ISOPROPYL    0.029641 
     37 H5         12.044362   18.280682    5.461131 H         2 ISOPROPYL    0.036131 
     38 H6         11.809189   19.916835    6.091397 H         2 ISOPROPYL    0.036131 
     39 H7         14.066413   18.588834    8.813477 H         2 ISOPROPYL    0.032343 
     40 H8          9.523891   15.260406    6.900196 H         2 ISOPROPYL    0.062029 
     41 H9          7.960390   15.082563    4.992329 H         2 ISOPROPYL    0.061766 
     42 H10         8.719462   17.269410    9.737279 H         2 ISOPROPYL    0.063182 
     43 H11         6.016443   14.489678    6.718126 H         2 ISOPROPYL    0.063640 
     44 H12         9.878173   18.341812    4.510859 H         2 ISOPROPYL    0.216929 
     45 H13         9.671405   13.957133    9.898308 H         2 ISOPROPYL    0.027802 
     46 H14         8.212576   13.951182   10.940403 H         2 ISOPROPYL    0.027802 
     47 H15         9.369434   15.311163   11.027811 H         2 ISOPROPYL    0.027802 
     48 H16         3.810775   18.628333    6.401510 H         2 ISOPROPYL    0.023804 
     49 H17         5.130965   19.026824    7.499621 H         2 ISOPROPYL    0.023804 
     50 H18         4.087928   17.637048    7.859614 H         2 ISOPROPYL    0.023804 
     51 H19         3.996638   15.601159    6.318439 H         2 ISOPROPYL    0.023804 
     52 H20         5.086636   15.517367    4.888882 H         2 ISOPROPYL    0.023804 
     53 H21         3.778029   16.699462    4.951816 H         2 ISOPROPYL    0.023804 
     54 H22         5.469655   18.292030    4.311283 H         2 ISOPROPYL    0.023804 
     55 H23         6.937596   17.324403    4.580062 H         2 ISOPROPYL    0.023804 
     56 H24         6.718291   18.895707    5.380157 H         2 ISOPROPYL    0.023804 
     57 H25         7.704947   12.658230    7.570246 H         1 AMINO       0.123928 
     58 H26         6.317900   12.755808    8.666942 H         1 AMINO       0.123928 
     59 H27         8.741483   15.581670    2.691713 H         2 ISOPROPYL    0.061758 
     60 H28        11.133589   16.124152    2.292381 H         2 ISOPROPYL    0.061766 
     61 H29        12.722935   16.185412    4.177561 H         2 ISOPROPYL    0.062029 
     62 H30        13.302433   20.923025    8.063150 H         2 ISOPROPYL    0.023322 
     63 H31        14.016910   20.552299    6.464425 H         2 ISOPROPYL    0.023322 
     64 H32        15.038134   20.580910    7.913576 H         2 ISOPROPYL    0.023322 
     65 H33        14.949899   16.967656    7.307696 H         2 ISOPROPYL    0.023322 
     66 H34        15.773559   18.460586    6.884010 H         2 ISOPROPYL    0.023322 
     67 H35        14.440639   17.898118    5.850125 H         2 ISOPROPYL    0.023322 
@<TRIPOS>BOND
     1    2    1 1    
     2    3    2 1    
     3    4    3 1    
     4    4    5 1    
     5    5    6 1    
     6    6    7 2    
     7    8    7 1    
     8    9    8 1    
     9    4    9 1    
    10   10   32 1    
    11    1   11 ar   
    12   11   12 ar   
    13    8   13 2    
    14    7   14 1    
    15   14   15 1    
    16   15   16 ar   
    17   16   17 ar   
    18   17   18 ar   
    19   19   18 ar   
    20   20   19 ar   
    21   15   20 ar   
    22    6   21 1    
    23   17   22 1    
    24   20   23 1    
    25   23   24 1    
    26   23   25 1    
    27   23   26 1    
    28    2   31 1    
    29   12   28 ar   
    30   29   28 ar   
    31   30   29 ar   
    32    1   30 ar   
    33    2   34 1    
    34   10   33 1    
    35   10    4 1    
    36    3   35 1    
    37   18   27 1    
    38    3   36 1    
    39    5   37 1    
    40    5   38 1    
    41   10   39 1    
    42   11   40 1    
    43   12   41 1    
    44   16   42 1    
    45   19   43 1    
    46   21   44 1    
    47   22   45 1    
    48   22   46 1    
    49   22   47 1    
    50   24   48 1    
    51   24   49 1    
    52   24   50 1    
    53   25   51 1    
    54   25   52 1    
    55   25   53 1    
    56   26   54 1    
    57   26   55 1    
    58   26   56 1    
    59   27   57 1    
    60   27   58 1    
    61   28   59 1    
    62   29   60 1    
    63   30   61 1    
    64   32   62 1    
    65   32   63 1    
    66   32   64 1    
    67   33   65 1    
    68   33   66 1    
    69   33   67 1    
@<TRIPOS>SUBSTRUCTURE
     1 AMINO      27 PERM              0 ****  ****    1  
     2 ISOPROPYL    10 PERM              0 ****  ****    1 ROOT 
@<TRIPOS>NORMAL
@<TRIPOS>FF_PBC
FORCE_FIELD_SETUP_FEATURE Force Field Setup information
v1.0  0 0.000000 0.000000 0.000000 0.000000 0.000000 0.000000 NONE 0 0 0 0 1 0 0 0 0 0 0 0 0
