#	Name:			B29
#	Creating user name:	ccollar
#	Creation time:		Sat Jan 15 13:20:28 2005

#	Modifying user name:	ccollar
#	Modification time:	Sat Jan 15 13:21:18 2005

@<TRIPOS>MOLECULE
B29
   81    84     3     1     0
SMALL
GASTEIGER


@<TRIPOS>ATOM
      1 C1         -6.318395    3.271330   -4.830018 C.ar      2 ISOPROPYL   -0.047264 
      2 C2         -6.999678    1.925835   -4.520296 C.3       2 ISOPROPYL   -0.025039 
      3 C3         -6.957049    0.861568   -5.666023 C.3       2 ISOPROPYL   -0.018536 
      4 C4         -7.979342    0.967482   -6.854159 C.3       2 ISOPROPYL    0.087645 
      5 C5         -8.103911    2.420923   -7.385654 C.3       2 ISOPROPYL    0.024946 
      6 C6         -6.763929    2.847352   -7.911890 C.2       2 ISOPROPYL    0.072142 
      7 C7         -5.963198    1.962711   -8.522348 C.2       2 ISOPROPYL    0.109797 
      8 C8         -6.447102    0.573029   -8.634783 C.2       2 ISOPROPYL    0.303213 
      9 O9         -7.486699    0.116938   -7.918515 O.3       2 ISOPROPYL   -0.303695 
     10 C1         -9.369075    0.299304   -6.535339 C.3       2 ISOPROPYL   -0.016541 
     11 C11        -4.939110    3.322084   -5.062834 C.ar      2 ISOPROPYL   -0.058572 
     12 C12        -4.307265    4.539056   -5.334209 C.ar      2 ISOPROPYL   -0.061501 
     13 O13        -5.904220   -0.192261   -9.414109 O.2       2 ISOPROPYL   -0.258547 
     14 S14        -4.374154    2.372133   -9.248934 S.3       2 ISOPROPYL   -0.081047 
     15 C15        -3.212843    1.984801   -7.956127 C.ar      2 ISOPROPYL    0.017015 
     16 C16        -3.362546    0.774364   -7.272373 C.ar      2 ISOPROPYL   -0.042990 
     17 C17        -2.643562    0.500438   -6.107384 C.ar      2 ISOPROPYL   -0.027032 
     18 C18        -1.763629    1.474566   -5.627452 C.ar      2 ISOPROPYL    0.051284 
     19 C19        -1.572024    2.648935   -6.362513 C.ar      2 ISOPROPYL   -0.034329 
     20 C20        -2.156890    2.853244   -7.623193 C.ar      2 ISOPROPYL   -0.026451 
     21 O21        -6.461492    4.143058   -7.752023 O.3       2 ISOPROPYL   -0.362719 
     22 C22        -2.822013   -0.841348   -5.383864 C.3       2 ISOPROPYL   -0.037884 
     23 C23        -1.619431    3.963983   -8.584315 C.3       2 ISOPROPYL   -0.011564 
     24 C24        -1.211941    3.300431   -9.935792 C.3       2 ISOPROPYL   -0.056009 
     25 C25        -0.323482    4.653211   -8.044616 C.3       2 ISOPROPYL   -0.056009 
     26 C26        -2.651890    5.108235   -8.821561 C.3       2 ISOPROPYL   -0.056009 
     27 N1         -1.064085    1.269422   -4.406240 N.am      1 AMINO      -0.215992 
     28 C28        -5.054511    5.716381   -5.412285 C.ar      2 ISOPROPYL   -0.061742 
     29 C29        -6.429127    5.678281   -5.167933 C.ar      2 ISOPROPYL   -0.061501 
     30 C30        -7.050266    4.466217   -4.853189 C.ar      2 ISOPROPYL   -0.058572 
     31 H1         -8.016527    2.116412   -4.163503 H         2 ISOPROPYL    0.031407 
     32 C2        -10.356539    0.359118   -7.740387 C.3       2 ISOPROPYL   -0.060022 
     33 C3        -10.104719    0.802390   -5.261928 C.3       2 ISOPROPYL   -0.060022 
     34 S34         0.446579    1.847597   -4.128912 S.o2      1 AMINO       0.072354 
     35 O35         0.308839    3.215420   -3.669723 O.2       1 AMINO      -0.149969 
     36 O36         1.119652    0.895295   -3.269046 O.2       1 AMINO      -0.149969 
     37 C37         1.318305    1.865177   -5.677664 C.ar      1 AMINO       0.108569 
     38 C38         2.266118    2.860528   -5.932070 C.ar      1 AMINO      -0.033864 
     39 C39         2.928456    2.901202   -7.162750 C.ar      1 AMINO      -0.042495 
     40 C40         2.641435    1.945617   -8.142401 C.ar      1 AMINO       0.051887 
     41 C41         1.727449    0.922834   -7.871597 C.ar      1 AMINO      -0.042495 
     42 C42         1.088001    0.867804   -6.629845 C.ar      1 AMINO      -0.033864 
     43 H2         -6.439516    1.521925   -3.660526 H         2 ISOPROPYL    0.031407 
     44 H3         -7.099249   -0.134140   -5.215735 H         2 ISOPROPYL    0.029641 
     45 H4         -5.931579    0.869495   -6.058281 H         2 ISOPROPYL    0.029641 
     46 H5         -8.481793    3.093951   -6.608319 H         2 ISOPROPYL    0.036131 
     47 H6         -8.779028    2.488383   -8.249043 H         2 ISOPROPYL    0.036131 
     48 H7         -9.168977   -0.775306   -6.370049 H         2 ISOPROPYL    0.032343 
     49 H8         -4.348220    2.415443   -5.021099 H         2 ISOPROPYL    0.062029 
     50 H9         -3.234232    4.575971   -5.479430 H         2 ISOPROPYL    0.061766 
     51 H10        -4.048056    0.029140   -7.653646 H         2 ISOPROPYL    0.063191 
     52 H11        -0.953013    3.405960   -5.907384 H         2 ISOPROPYL    0.063973 
     53 H12        -5.607019    4.422664   -8.057003 H         2 ISOPROPYL    0.216929 
     54 H13        -3.323360   -1.584917   -6.021468 H         2 ISOPROPYL    0.027812 
     55 H14        -3.433044   -0.685627   -4.482203 H         2 ISOPROPYL    0.027812 
     56 H15        -1.841045   -1.248916   -5.096387 H         2 ISOPROPYL    0.027812 
     57 H16        -2.058258    2.835758  -10.455297 H         2 ISOPROPYL    0.023804 
     58 H17        -0.458107    2.518407   -9.753574 H         2 ISOPROPYL    0.023804 
     59 H18        -0.781209    4.042313  -10.625691 H         2 ISOPROPYL    0.023804 
     60 H19         0.440516    3.901853   -7.801963 H         2 ISOPROPYL    0.023804 
     61 H20        -0.531051    5.267129   -7.154807 H         2 ISOPROPYL    0.023804 
     62 H21         0.115587    5.328853   -8.795066 H         2 ISOPROPYL    0.023804 
     63 H22        -2.178886    5.958316   -9.336854 H         2 ISOPROPYL    0.023804 
     64 H23        -3.040825    5.467986   -7.858167 H         2 ISOPROPYL    0.023804 
     65 H24        -3.496920    4.807601   -9.449474 H         2 ISOPROPYL    0.023804 
     66 H25        -1.496193    0.765331   -3.659041 H         1 AMINO       0.173687 
     67 H26        -4.569397    6.655898   -5.658592 H         2 ISOPROPYL    0.061758 
     68 H27        -7.014338    6.591165   -5.221316 H         2 ISOPROPYL    0.061766 
     69 H28        -8.110672    4.468319   -4.622956 H         2 ISOPROPYL    0.062029 
     70 H29        -9.860442    0.081578   -8.682968 H         2 ISOPROPYL    0.023322 
     71 H30       -10.788988    1.364872   -7.848615 H         2 ISOPROPYL    0.023322 
     72 H31       -11.192049   -0.342331   -7.585714 H         2 ISOPROPYL    0.023322 
     73 H32       -10.208890    1.897122   -5.273535 H         2 ISOPROPYL    0.023322 
     74 H33        -9.579238    0.482964   -4.350282 H         2 ISOPROPYL    0.023322 
     75 H34       -11.115042    0.367599   -5.206977 H         2 ISOPROPYL    0.023322 
     76 H35         2.484316    3.603882   -5.172423 H         1 AMINO       0.063744 
     77 H36         3.662375    3.677232   -7.357921 H         1 AMINO       0.063090 
     78 H37         1.513946    0.170156   -8.624555 H         1 AMINO       0.063090 
     79 C           3.285999    2.014340   -9.429397 C.1       3 CN          0.099155 
     80 H38         0.411778    0.049896   -6.405397 H         1 AMINO       0.063744 
     81 N           3.802968    2.069945  -10.463783 N.1       3 CN         -0.190869 
@<TRIPOS>BOND
     1    2    1 1    
     2    3    2 1    
     3    4    3 1    
     4    4    5 1    
     5    5    6 1    
     6    6    7 2    
     7    8    7 1    
     8    9    8 1    
     9    4    9 1    
    10   10   32 1    
    11    1   11 ar   
    12   11   12 ar   
    13    8   13 2    
    14    7   14 1    
    15   14   15 1    
    16   15   16 ar   
    17   16   17 ar   
    18   17   18 ar   
    19   19   18 ar   
    20   20   19 ar   
    21   15   20 ar   
    22    6   21 1    
    23   17   22 1    
    24   20   23 1    
    25   23   24 1    
    26   23   25 1    
    27   23   26 1    
    28   27   34 1    
    29   12   28 ar   
    30   29   28 ar   
    31   30   29 ar   
    32    1   30 ar   
    33    2   31 1    
    34   10   33 1    
    35   10    4 1    
    36   34   35 2    
    37   18   27 1    
    38   34   36 2    
    39   34   37 1    
    40   37   38 ar   
    41   38   39 ar   
    42   39   40 ar   
    43   40   41 ar   
    44   41   42 ar   
    45   37   42 ar   
    46    2   43 1    
    47    3   44 1    
    48    3   45 1    
    49    5   46 1    
    50    5   47 1    
    51   10   48 1    
    52   11   49 1    
    53   12   50 1    
    54   16   51 1    
    55   19   52 1    
    56   21   53 1    
    57   22   54 1    
    58   22   55 1    
    59   22   56 1    
    60   24   57 1    
    61   24   58 1    
    62   24   59 1    
    63   25   60 1    
    64   25   61 1    
    65   25   62 1    
    66   26   63 1    
    67   26   64 1    
    68   26   65 1    
    69   27   66 1    
    70   28   67 1    
    71   29   68 1    
    72   30   69 1    
    73   32   70 1    
    74   32   71 1    
    75   32   72 1    
    76   33   73 1    
    77   33   74 1    
    78   33   75 1    
    79   38   76 1    
    80   39   77 1    
    81   41   78 1    
    82   79   81 3    
    83   42   80 1    
    84   40   79 1    
@<TRIPOS>SUBSTRUCTURE
     1 AMINO      27 PERM              0 ****  ****    2  
     2 ISOPROPYL    10 PERM              0 ****  ****    1 ROOT 
     3 CN         79 PERM              0 ****  ****    1  
@<TRIPOS>NORMAL
@<TRIPOS>FF_PBC
FORCE_FIELD_SETUP_FEATURE Force Field Setup information
v1.0  0 0.000000 0.000000 0.000000 0.000000 0.000000 0.000000 NONE 0 0 0 0 1 0 0 0 0 0 0 0 0
