#	Name:			B30
#	Creating user name:	ccollar
#	Creation time:		Mon Jan 17 12:26:20 2005

#	Modifying user name:	ccollar
#	Modification time:	Mon Jan 17 12:26:37 2005

@<TRIPOS>MOLECULE
B30
   77    80     2     1     0
SMALL
GASTEIGER


@<TRIPOS>ATOM
      1 C1         11.227392   15.782610    5.690360 C.ar      2 ISOPROPYL   -0.047264 
      2 C2         12.254837   15.830536    6.835971 C.3       2 ISOPROPYL   -0.025039 
      3 C3         11.952810   16.855153    7.978869 C.3       2 ISOPROPYL   -0.018536 
      4 C4         12.300714   18.372036    7.764631 C.3       2 ISOPROPYL    0.087645 
      5 C5         11.852849   18.878903    6.367104 C.3       2 ISOPROPYL    0.024946 
      6 C6         10.360212   18.746004    6.273170 C.2       2 ISOPROPYL    0.072142 
      7 C7          9.592907   18.951335    7.352728 C.2       2 ISOPROPYL    0.109797 
      8 C8         10.275066   19.291258    8.616487 C.2       2 ISOPROPYL    0.303213 
      9 O9         11.595644   19.120088    8.785548 O.3       2 ISOPROPYL   -0.303695 
     10 C1         13.799934   18.716209    8.101492 C.3       2 ISOPROPYL   -0.016541 
     11 C11         9.912221   15.376876    5.944757 C.ar      2 ISOPROPYL   -0.058572 
     12 C12         8.972322   15.319149    4.911767 C.ar      2 ISOPROPYL   -0.061501 
     13 O13         9.632046   19.761413    9.540202 O.2       2 ISOPROPYL   -0.258547 
     14 S14         7.799604   18.887873    7.343264 S.3       2 ISOPROPYL   -0.081047 
     15 C15         7.437949   17.223557    7.862896 C.ar      2 ISOPROPYL    0.017015 
     16 C16         8.136978   16.702384    8.955940 C.ar      2 ISOPROPYL   -0.042990 
     17 C17         8.093336   15.341685    9.265720 C.ar      2 ISOPROPYL   -0.027032 
     18 C18         7.341349   14.498566    8.442808 C.ar      2 ISOPROPYL    0.051301 
     19 C19         6.570840   15.051632    7.414688 C.ar      2 ISOPROPYL   -0.034329 
     20 C20         6.469208   16.437742    7.211952 C.ar      2 ISOPROPYL   -0.026451 
     21 O21         9.877596   18.445926    5.059464 O.3       2 ISOPROPYL   -0.362719 
     22 C22         8.854960   14.798367   10.482148 C.3       2 ISOPROPYL   -0.037884 
     23 C23         5.319797   17.036947    6.337312 C.3       2 ISOPROPYL   -0.011564 
     24 C24         4.543355   18.096031    7.179481 C.3       2 ISOPROPYL   -0.056009 
     25 C25         4.257123   15.965971    5.924472 C.3       2 ISOPROPYL   -0.056009 
     26 C26         5.844716   17.665999    5.011131 C.3       2 ISOPROPYL   -0.056009 
     27 N1          7.359412   13.091951    8.650165 N.am      1 AMINO      -0.215532 
     28 C28         9.327941   15.702271    3.616636 C.ar      2 ISOPROPYL   -0.061742 
     29 C29        10.641465   16.094917    3.349680 C.ar      2 ISOPROPYL   -0.061501 
     30 C30        11.589820   16.108905    4.376560 C.ar      2 ISOPROPYL   -0.058572 
     31 H1         13.254762   15.960093    6.410664 H         2 ISOPROPYL    0.031407 
     32 C2         14.120212   20.233582    7.940924 C.3       2 ISOPROPYL   -0.060022 
     33 C3         14.885709   17.895001    7.351423 C.3       2 ISOPROPYL   -0.060022 
     34 S34         6.071075   12.136678    8.342659 S.o2      1 AMINO       0.078632 
     35 O35         6.128328   11.763440    6.943527 O.2       1 AMINO      -0.149462 
     36 O36         6.114532   11.072657    9.325627 O.2       1 AMINO      -0.149462 
     37 C37         4.536119   13.002113    8.608666 C.2       1 AMINO       0.145665 
     38 C38         4.379731   13.932983    9.552050 C.2       1 AMINO      -0.027792 
     39 C39         3.022237   14.494103    9.548237 C.2       1 AMINO      -0.052804 
     40 C40         2.248737   13.944635    8.607935 C.2       1 AMINO      -0.022437 
     41 S41         3.077160   12.701892    7.635448 S.3       1 AMINO      -0.076707 
     42 H2         12.231906   14.818161    7.272673 H         2 ISOPROPYL    0.031407 
     43 H3         12.495168   16.532110    8.882132 H         2 ISOPROPYL    0.029641 
     44 H4         10.885856   16.749982    8.216209 H         2 ISOPROPYL    0.029641 
     45 H5         12.372291   18.340203    5.567122 H         2 ISOPROPYL    0.036131 
     46 H6         12.048076   19.951384    6.235013 H         2 ISOPROPYL    0.036131 
     47 H7         13.937289   18.497218    9.176361 H         2 ISOPROPYL    0.032343 
     48 H8          9.617347   15.091488    6.946865 H         2 ISOPROPYL    0.062029 
     49 H9          7.965456   14.971349    5.109520 H         2 ISOPROPYL    0.061766 
     50 H10         8.723916   17.364877    9.578352 H         2 ISOPROPYL    0.063191 
     51 H11         6.058762   14.357659    6.766903 H         2 ISOPROPYL    0.063973 
     52 H12         8.937446   18.333067    4.989659 H         2 ISOPROPYL    0.216929 
     53 H13         9.138290   15.603239   11.176918 H         2 ISOPROPYL    0.027812 
     54 H14         9.770398   14.294272   10.138022 H         2 ISOPROPYL    0.027812 
     55 H15         8.226175   14.081979   11.032245 H         2 ISOPROPYL    0.027812 
     56 H16         4.159306   17.628573    8.099674 H         2 ISOPROPYL    0.023804 
     57 H17         3.689642   18.501177    6.614775 H         2 ISOPROPYL    0.023804 
     58 H18         5.163635   18.951253    7.471483 H         2 ISOPROPYL    0.023804 
     59 H19         3.884624   15.431099    6.809745 H         2 ISOPROPYL    0.023804 
     60 H20         4.666603   15.242139    5.203414 H         2 ISOPROPYL    0.023804 
     61 H21         3.386426   16.430786    5.436409 H         2 ISOPROPYL    0.023804 
     62 H22         5.006735   17.915363    4.342171 H         2 ISOPROPYL    0.023804 
     63 H23         6.497020   16.951306    4.488908 H         2 ISOPROPYL    0.023804 
     64 H24         6.400435   18.596944    5.164391 H         2 ISOPROPYL    0.023804 
     65 H25         8.188176   12.642478    8.982620 H         1 AMINO       0.173704 
     66 H26         8.588604   15.692224    2.821700 H         2 ISOPROPYL    0.061758 
     67 H27        10.925473   16.387837    2.343598 H         2 ISOPROPYL    0.061766 
     68 H28        12.614361   16.373807    4.136503 H         2 ISOPROPYL    0.062029 
     69 H29        15.072417   20.478464    8.438272 H         2 ISOPROPYL    0.023322 
     70 H30        13.338015   20.861410    8.394319 H         2 ISOPROPYL    0.023322 
     71 H31        14.225026   20.506256    6.880309 H         2 ISOPROPYL    0.023322 
     72 H32        15.886855   18.303058    7.561098 H         2 ISOPROPYL    0.023322 
     73 H33        14.727222   17.932807    6.263831 H         2 ISOPROPYL    0.023322 
     74 H34        14.898109   16.850458    7.694955 H         2 ISOPROPYL    0.023322 
     75 H35         5.164840   14.241022   10.241277 H         1 AMINO       0.064257 
     76 H36         2.690705   15.271013   10.237103 H         1 AMINO       0.062342 
     77 H37         1.208361   14.221987    8.440264 H         1 AMINO       0.069379 
@<TRIPOS>BOND
     1    2    1 1    
     2    3    2 1    
     3    4    3 1    
     4    4    5 1    
     5    5    6 1    
     6    6    7 2    
     7    8    7 1    
     8    9    8 1    
     9    4    9 1    
    10   10   32 1    
    11    1   11 ar   
    12   11   12 ar   
    13    8   13 2    
    14    7   14 1    
    15   14   15 1    
    16   15   16 ar   
    17   16   17 ar   
    18   17   18 ar   
    19   19   18 ar   
    20   20   19 ar   
    21   15   20 ar   
    22    6   21 1    
    23   17   22 1    
    24   20   23 1    
    25   23   24 1    
    26   23   25 1    
    27   23   26 1    
    28   27   34 1    
    29   12   28 ar   
    30   29   28 ar   
    31   30   29 ar   
    32    1   30 ar   
    33    2   31 1    
    34   10   33 1    
    35   10    4 1    
    36   34   35 2    
    37   18   27 1    
    38   34   36 2    
    39   34   37 1    
    40   37   38 2    
    41   38   39 1    
    42   39   40 2    
    43   40   41 1    
    44   37   41 1    
    45    2   42 1    
    46    3   43 1    
    47    3   44 1    
    48    5   45 1    
    49    5   46 1    
    50   10   47 1    
    51   11   48 1    
    52   12   49 1    
    53   16   50 1    
    54   19   51 1    
    55   21   52 1    
    56   22   53 1    
    57   22   54 1    
    58   22   55 1    
    59   24   56 1    
    60   24   57 1    
    61   24   58 1    
    62   25   59 1    
    63   25   60 1    
    64   25   61 1    
    65   26   62 1    
    66   26   63 1    
    67   26   64 1    
    68   27   65 1    
    69   28   66 1    
    70   29   67 1    
    71   30   68 1    
    72   32   69 1    
    73   32   70 1    
    74   32   71 1    
    75   33   72 1    
    76   33   73 1    
    77   33   74 1    
    78   38   75 1    
    79   39   76 1    
    80   40   77 1    
@<TRIPOS>SUBSTRUCTURE
     1 AMINO      27 PERM              0 ****  ****    1  
     2 ISOPROPYL    10 PERM              0 ****  ****    1 ROOT 
@<TRIPOS>NORMAL
@<TRIPOS>FF_PBC
FORCE_FIELD_SETUP_FEATURE Force Field Setup information
v1.0  0 0.000000 0.000000 0.000000 0.000000 0.000000 0.000000 NONE 0 0 0 0 1 0 0 0 0 0 0 0 0
