#	Name:			B31
#	Creating user name:	ccollar
#	Creation time:		Mon Jan 17 12:34:24 2005

#	Modifying user name:	ccollar
#	Modification time:	Mon Jan 17 12:34:36 2005

@<TRIPOS>MOLECULE
B31
   79    82     2     1     0
SMALL
GASTEIGER


@<TRIPOS>ATOM
      1 C1         11.229682   15.784537    5.690945 C.ar      2 ISOPROPYL   -0.047264 
      2 C2         12.258118   15.832788    6.835665 C.3       2 ISOPROPYL   -0.025039 
      3 C3         11.957888   16.858712    7.977782 C.3       2 ISOPROPYL   -0.018536 
      4 C4         12.303036   18.375884    7.761037 C.3       2 ISOPROPYL    0.087645 
      5 C5         11.851472   18.880875    6.364014 C.3       2 ISOPROPYL    0.024946 
      6 C6         10.358778   18.746545    6.273220 C.2       2 ISOPROPYL    0.072142 
      7 C7          9.593409   18.951577    7.354215 C.2       2 ISOPROPYL    0.109797 
      8 C8         10.277775   19.292786    8.616457 C.2       2 ISOPROPYL    0.303213 
      9 O9         11.599050   19.123974    8.782662 O.3       2 ISOPROPYL   -0.303695 
     10 C1         13.802470   18.722446    8.094437 C.3       2 ISOPROPYL   -0.016541 
     11 C11         9.914085   15.380637    5.946351 C.ar      2 ISOPROPYL   -0.058572 
     12 C12         8.973832   15.323345    4.913637 C.ar      2 ISOPROPYL   -0.061501 
     13 O13         9.635911   19.761807    9.541543 O.2       2 ISOPROPYL   -0.258547 
     14 S14         7.800043   18.886345    7.348686 S.3       2 ISOPROPYL   -0.081047 
     15 C15         7.441534   17.219174    7.861074 C.ar      2 ISOPROPYL    0.017015 
     16 C16         8.145122   16.693231    8.949324 C.ar      2 ISOPROPYL   -0.042990 
     17 C17         8.091839   15.333904    9.264543 C.ar      2 ISOPROPYL   -0.027032 
     18 C18         7.317364   14.497116    8.456547 C.ar      2 ISOPROPYL    0.051335 
     19 C19         6.565805   15.051054    7.415438 C.ar      2 ISOPROPYL   -0.034328 
     20 C20         6.470554   16.436698    7.209319 C.ar      2 ISOPROPYL   -0.026451 
     21 O21         9.874038   18.445634    5.060573 O.3       2 ISOPROPYL   -0.362719 
     22 C22         8.864689   14.783340   10.470420 C.3       2 ISOPROPYL   -0.037884 
     23 C23         5.323204   17.034729    6.331135 C.3       2 ISOPROPYL   -0.011564 
     24 C24         4.539367   18.086978    7.174504 C.3       2 ISOPROPYL   -0.056009 
     25 C25         4.267222   15.960844    5.906783 C.3       2 ISOPROPYL   -0.056009 
     26 C26         5.851517   17.673782    5.010940 C.3       2 ISOPROPYL   -0.056009 
     27 N1          7.287993   13.095388    8.692295 N.am      1 AMINO      -0.214644 
     28 C28         9.329457   15.704476    3.617924 C.ar      2 ISOPROPYL   -0.061742 
     29 C29        10.643401   16.095062    3.350064 C.ar      2 ISOPROPYL   -0.061501 
     30 C30        11.592019   16.109045    4.376662 C.ar      2 ISOPROPYL   -0.058572 
     31 H1         13.257890   15.961275    6.409663 H         2 ISOPROPYL    0.031407 
     32 C2         14.120255   20.240180    7.932352 C.3       2 ISOPROPYL   -0.060022 
     33 C3         14.887650   17.902296    7.342357 C.3       2 ISOPROPYL   -0.060022 
     34 S34         5.927362   12.202531    8.460824 S.o2      1 AMINO       0.089596 
     35 O35         5.902727   11.805486    7.066621 O.2       1 AMINO      -0.148481 
     36 O36         5.924142   11.160791    9.468667 O.2       1 AMINO      -0.148481 
     37 C37         4.510265   13.230372    8.761228 C.ar      1 AMINO       0.196860 
     38 C38         3.272411   12.899077    8.204556 C.ar      1 AMINO      -0.016268 
     39 C39         2.174241   13.731756    8.435689 C.ar      1 AMINO      -0.056979 
     40 C40         2.338448   14.874588    9.223083 C.ar      1 AMINO      -0.043468 
     41 C41         3.592042   15.147122    9.778265 C.ar      1 AMINO       0.029800 
     42 N42         4.629777   14.314819    9.556326 N.ar      1 AMINO      -0.235383 
     43 H2         12.234850   14.820885    7.273425 H         2 ISOPROPYL    0.031407 
     44 H3         12.502570   16.537345    8.880253 H         2 ISOPROPYL    0.029641 
     45 H4         10.891669   16.752328    8.217331 H         2 ISOPROPYL    0.029641 
     46 H5         12.369710   18.341945    5.563434 H         2 ISOPROPYL    0.036131 
     47 H6         12.045374   19.953405    6.230415 H         2 ISOPROPYL    0.036131 
     48 H7         13.942525   18.504304    9.169129 H         2 ISOPROPYL    0.032343 
     49 H8          9.618780   15.096409    6.948806 H         2 ISOPROPYL    0.062029 
     50 H9          7.966490   14.977501    5.112168 H         2 ISOPROPYL    0.061766 
     51 H10         8.742962   17.351777    9.565364 H         2 ISOPROPYL    0.063191 
     52 H11         6.061430   14.356206    6.762649 H         2 ISOPROPYL    0.063973 
     53 H12         8.933846   18.331970    4.993016 H         2 ISOPROPYL    0.216929 
     54 H13         9.191809   15.587269   11.146756 H         2 ISOPROPYL    0.027812 
     55 H14         9.753956   14.243450   10.112326 H         2 ISOPROPYL    0.027812 
     56 H15         8.224723   14.096158   11.044394 H         2 ISOPROPYL    0.027812 
     57 H16         3.690100   18.495699    6.605742 H         2 ISOPROPYL    0.023804 
     58 H17         5.158141   18.939542    7.477691 H         2 ISOPROPYL    0.023804 
     59 H18         4.148034   17.613313    8.087972 H         2 ISOPROPYL    0.023804 
     60 H19         4.685636   15.246127    5.181719 H         2 ISOPROPYL    0.023804 
     61 H20         3.397128   16.425637    5.417652 H         2 ISOPROPYL    0.023804 
     62 H21         3.890820   15.413640    6.783399 H         2 ISOPROPYL    0.023804 
     63 H22         6.397564   18.609226    5.171505 H         2 ISOPROPYL    0.023804 
     64 H23         5.015981   17.918768    4.337323 H         2 ISOPROPYL    0.023804 
     65 H24         6.513423   16.967075    4.490018 H         2 ISOPROPYL    0.023804 
     66 H25         8.105165   12.615960    9.010263 H         1 AMINO       0.173738 
     67 H26         8.589805   15.694578    2.823281 H         2 ISOPROPYL    0.061758 
     68 H27        10.927496   16.386425    2.343554 H         2 ISOPROPYL    0.061766 
     69 H28        12.616773   16.372657    4.136013 H         2 ISOPROPYL    0.062029 
     70 H29        15.073118   20.486703    8.427633 H         2 ISOPROPYL    0.023322 
     71 H30        13.338101   20.867162    8.386984 H         2 ISOPROPYL    0.023322 
     72 H31        14.222496   20.512356    6.871364 H         2 ISOPROPYL    0.023322 
     73 H32        15.888663   18.312304    7.548824 H         2 ISOPROPYL    0.023322 
     74 H33        14.726065   17.938572    6.255177 H         2 ISOPROPYL    0.023322 
     75 H34        14.902823   16.858165    7.687009 H         2 ISOPROPYL    0.023322 
     76 H35         3.170739   12.005481    7.598214 H         1 AMINO       0.065280 
     77 H36         1.205270   13.494297    8.007209 H         1 AMINO       0.061908 
     78 H37         1.502240   15.543287    9.402157 H         1 AMINO       0.063267 
     79 H38         3.740381   16.029384   10.392141 H         1 AMINO       0.083003 
@<TRIPOS>BOND
     1    2    1 1    
     2    3    2 1    
     3    4    3 1    
     4    4    5 1    
     5    5    6 1    
     6    6    7 2    
     7    8    7 1    
     8    9    8 1    
     9    4    9 1    
    10   10   32 1    
    11    1   11 ar   
    12   11   12 ar   
    13    8   13 2    
    14    7   14 1    
    15   14   15 1    
    16   15   16 ar   
    17   16   17 ar   
    18   17   18 ar   
    19   19   18 ar   
    20   20   19 ar   
    21   15   20 ar   
    22    6   21 1    
    23   17   22 1    
    24   20   23 1    
    25   23   24 1    
    26   23   25 1    
    27   23   26 1    
    28   27   34 1    
    29   12   28 ar   
    30   29   28 ar   
    31   30   29 ar   
    32    1   30 ar   
    33    2   31 1    
    34   10   33 1    
    35   10    4 1    
    36   34   35 2    
    37   18   27 1    
    38   34   36 2    
    39   34   37 1    
    40   37   38 ar   
    41   38   39 ar   
    42   39   40 ar   
    43   40   41 ar   
    44   41   42 ar   
    45   37   42 ar   
    46    2   43 1    
    47    3   44 1    
    48    3   45 1    
    49    5   46 1    
    50    5   47 1    
    51   10   48 1    
    52   11   49 1    
    53   12   50 1    
    54   16   51 1    
    55   19   52 1    
    56   21   53 1    
    57   22   54 1    
    58   22   55 1    
    59   22   56 1    
    60   24   57 1    
    61   24   58 1    
    62   24   59 1    
    63   25   60 1    
    64   25   61 1    
    65   25   62 1    
    66   26   63 1    
    67   26   64 1    
    68   26   65 1    
    69   27   66 1    
    70   28   67 1    
    71   29   68 1    
    72   30   69 1    
    73   32   70 1    
    74   32   71 1    
    75   32   72 1    
    76   33   73 1    
    77   33   74 1    
    78   33   75 1    
    79   38   76 1    
    80   39   77 1    
    81   40   78 1    
    82   41   79 1    
@<TRIPOS>SUBSTRUCTURE
     1 AMINO      27 PERM              0 ****  ****    1  
     2 ISOPROPYL    10 PERM              0 ****  ****    1 ROOT 
@<TRIPOS>NORMAL
@<TRIPOS>FF_PBC
FORCE_FIELD_SETUP_FEATURE Force Field Setup information
v1.0  0 0.000000 0.000000 0.000000 0.000000 0.000000 0.000000 NONE 0 0 0 0 1 0 0 0 0 0 0 0 0
