#	Name:			B32
#	Creating user name:	ccollar
#	Creation time:		Mon Jan 17 12:35:36 2005

#	Modifying user name:	ccollar
#	Modification time:	Mon Jan 17 12:35:58 2005

@<TRIPOS>MOLECULE
B32
   79    82     2     1     0
SMALL
GASTEIGER


@<TRIPOS>ATOM
      1 C1         11.226069   15.781001    5.690097 C.ar      2 ISOPROPYL   -0.047264 
      2 C2         12.249435   15.825107    6.839454 C.3       2 ISOPROPYL   -0.025039 
      3 C3         11.948572   16.852410    7.980180 C.3       2 ISOPROPYL   -0.018536 
      4 C4         12.298252   18.368522    7.763274 C.3       2 ISOPROPYL    0.087645 
      5 C5         11.850478   18.874120    6.365187 C.3       2 ISOPROPYL    0.024946 
      6 C6         10.357690   18.742473    6.271608 C.2       2 ISOPROPYL    0.072142 
      7 C7          9.591011   18.949299    7.351296 C.2       2 ISOPROPYL    0.109797 
      8 C8         10.273688   19.290372    8.614465 C.2       2 ISOPROPYL    0.303213 
      9 O9         11.594204   19.118625    8.783330 O.3       2 ISOPROPYL   -0.303695 
     10 C1         13.797868   18.711670    8.099401 C.3       2 ISOPROPYL   -0.016541 
     11 C11         9.907702   15.383007    5.940077 C.ar      2 ISOPROPYL   -0.058572 
     12 C12         8.971567   15.328948    4.903474 C.ar      2 ISOPROPYL   -0.061501 
     13 O13         9.631348   19.762303    9.537724 O.2       2 ISOPROPYL   -0.258547 
     14 S14         7.797922   18.886479    7.341825 S.3       2 ISOPROPYL   -0.081047 
     15 C15         7.435282   17.224456    7.868407 C.ar      2 ISOPROPYL    0.017015 
     16 C16         8.132560   16.705060    8.963249 C.ar      2 ISOPROPYL   -0.042990 
     17 C17         8.087586   15.344618    9.275016 C.ar      2 ISOPROPYL   -0.027032 
     18 C18         7.345511   14.497650    8.446026 C.ar      2 ISOPROPYL    0.051284 
     19 C19         6.579507   15.050454    7.414158 C.ar      2 ISOPROPYL   -0.034329 
     20 C20         6.466620   16.436690    7.220680 C.ar      2 ISOPROPYL   -0.026451 
     21 O21         9.874181   18.442003    5.058273 O.3       2 ISOPROPYL   -0.362719 
     22 C22         8.839063   14.808733   10.501416 C.3       2 ISOPROPYL   -0.037884 
     23 C23         5.305769   17.032846    6.360138 C.3       2 ISOPROPYL   -0.011564 
     24 C24         4.542944   18.098845    7.206339 C.3       2 ISOPROPYL   -0.056009 
     25 C25         4.235814   15.959677    5.972456 C.3       2 ISOPROPYL   -0.056009 
     26 C26         5.814012   17.652330    5.023480 C.3       2 ISOPROPYL   -0.056009 
     27 N        7.369719   13.089862    8.651646 N.am      1 AMINO      -0.215947 
     28 C28         9.334213   15.708196    3.609171 C.ar      2 ISOPROPYL   -0.061742 
     29 C29        10.650940   16.093065    3.346683 C.ar      2 ISOPROPYL   -0.061501 
     30 C30        11.595333   16.103361    4.377235 C.ar      2 ISOPROPYL   -0.058572 
     31 H1         13.251536   15.949242    6.417757 H         2 ISOPROPYL    0.031407 
     32 C2         14.119546   20.228532    7.936815 C.3       2 ISOPROPYL   -0.060022 
     33 C3         14.882645   17.888477    7.350050 C.3       2 ISOPROPYL   -0.060022 
     34 S34         6.126551   12.092225    8.262800 S.o2      1 AMINO       0.073800 
     35 O35         6.215689   11.819251    6.842086 O.2       1 AMINO      -0.149921 
     36 O36         6.171700   10.973747    9.182735 O.2       1 AMINO      -0.149921 
     37 C37         4.608234   12.960413    8.570721 C.ar      1 AMINO       0.126486 
     38 C38         3.488162   12.731386    7.767891 C.ar      1 AMINO      -0.032151 
     39 C39         2.303130   13.424041    8.029871 C.ar      1 AMINO      -0.041736 
     40 C40         2.265498   14.334242    9.090230 C.ar      1 AMINO       0.027675 
     41 N41         3.355935   14.527313    9.861075 N.ar      1 AMINO      -0.261311 
     42 C42         4.503498   13.851701    9.642101 C.ar      1 AMINO       0.054146 
     43 H2         12.220044   14.813381    7.277268 H         2 ISOPROPYL    0.031407 
     44 H3         12.490437   16.530267    8.884060 H         2 ISOPROPYL    0.029641 
     45 H4         10.881437   16.748869    8.217545 H         2 ISOPROPYL    0.029641 
     46 H5         12.369439   18.334307    5.565677 H         2 ISOPROPYL    0.036131 
     47 H6         12.046559   19.946296    6.231946 H         2 ISOPROPYL    0.036131 
     48 H7         13.935291   18.493979    9.174534 H         2 ISOPROPYL    0.032343 
     49 H8          9.607345   15.101003    6.941508 H         2 ISOPROPYL    0.062029 
     50 H9          7.962103   14.987097    5.097791 H         2 ISOPROPYL    0.061766 
     51 H10         8.718569   17.368921    9.585097 H         2 ISOPROPYL    0.063191 
     52 H11         6.078772   14.360227    6.754562 H         2 ISOPROPYL    0.063973 
     53 H12         8.933711   18.331052    4.988620 H         2 ISOPROPYL    0.216929 
     54 H13         9.118261   15.617903   11.192885 H         2 ISOPROPYL    0.027812 
     55 H14         9.756872   14.301250   10.168731 H         2 ISOPROPYL    0.027812 
     56 H15         8.205165   14.097742   11.052548 H         2 ISOPROPYL    0.027812 
     57 H16         5.166592   18.957331    7.480611 H         2 ISOPROPYL    0.023804 
     58 H17         4.174611   17.638729    8.136661 H         2 ISOPROPYL    0.023804 
     59 H18         3.679534   18.499054    6.653005 H         2 ISOPROPYL    0.023804 
     60 H19         3.885292   15.426681    6.868037 H         2 ISOPROPYL    0.023804 
     61 H20         4.628950   15.234297    5.244042 H         2 ISOPROPYL    0.023804 
     62 H21         3.354159   16.422331    5.502421 H         2 ISOPROPYL    0.023804 
     63 H22         4.966093   17.910480    4.370561 H         2 ISOPROPYL    0.023804 
     64 H23         6.447696   16.928770    4.490582 H         2 ISOPROPYL    0.023804 
     65 H24         6.385446   18.575583    5.166116 H         2 ISOPROPYL    0.023804 
     66 H25         8.186996   12.654040    9.027554 H         1 AMINO       0.173687 
     67 H26         8.597810   15.701251    2.811490 H         2 ISOPROPYL    0.061758 
     68 H27        10.940473   16.382849    2.341268 H         2 ISOPROPYL    0.061766 
     69 H28        12.622235   16.362453    4.140869 H         2 ISOPROPYL    0.062029 
     70 H29        13.338015   20.857705    8.389497 H         2 ISOPROPYL    0.023322 
     71 H30        14.224453   20.499641    6.875804 H         2 ISOPROPYL    0.023322 
     72 H31        15.072050   20.473152    8.433739 H         2 ISOPROPYL    0.023322 
     73 H32        14.722760   17.923436    6.262567 H         2 ISOPROPYL    0.023322 
     74 H33        14.895474   16.844855    7.696337 H         2 ISOPROPYL    0.023322 
     75 H34        15.884124   18.296901    7.557363 H         2 ISOPROPYL    0.023322 
     76 H35         3.540748   12.022368    6.948489 H         1 AMINO       0.063801 
     77 H36         1.422915   13.258873    7.416350 H         1 AMINO       0.063321 
     78 H37         1.359122   14.892057    9.301450 H         1 AMINO       0.082935 
     79 H38         5.345833   14.005538   10.306482 H         1 AMINO       0.084938 
@<TRIPOS>BOND
     1    2    1 1    
     2    3    2 1    
     3    4    3 1    
     4    4    5 1    
     5    5    6 1    
     6    6    7 2    
     7    8    7 1    
     8    9    8 1    
     9    4    9 1    
    10   10   32 1    
    11    1   11 ar   
    12   11   12 ar   
    13    8   13 2    
    14    7   14 1    
    15   14   15 1    
    16   15   16 ar   
    17   16   17 ar   
    18   17   18 ar   
    19   19   18 ar   
    20   20   19 ar   
    21   15   20 ar   
    22    6   21 1    
    23   17   22 1    
    24   20   23 1    
    25   23   24 1    
    26   23   25 1    
    27   23   26 1    
    28   27   34 1    
    29   12   28 ar   
    30   29   28 ar   
    31   30   29 ar   
    32    1   30 ar   
    33    2   31 1    
    34   10   33 1    
    35   10    4 1    
    36   34   35 2    
    37   18   27 1    
    38   34   36 2    
    39   34   37 1    
    40   37   38 ar   
    41   38   39 ar   
    42   39   40 ar   
    43   40   41 ar   
    44   41   42 ar   
    45   37   42 ar   
    46    2   43 1    
    47    3   44 1    
    48    3   45 1    
    49    5   46 1    
    50    5   47 1    
    51   10   48 1    
    52   11   49 1    
    53   12   50 1    
    54   16   51 1    
    55   19   52 1    
    56   21   53 1    
    57   22   54 1    
    58   22   55 1    
    59   22   56 1    
    60   24   57 1    
    61   24   58 1    
    62   24   59 1    
    63   25   60 1    
    64   25   61 1    
    65   25   62 1    
    66   26   63 1    
    67   26   64 1    
    68   26   65 1    
    69   27   66 1    
    70   28   67 1    
    71   29   68 1    
    72   30   69 1    
    73   32   70 1    
    74   32   71 1    
    75   32   72 1    
    76   33   73 1    
    77   33   74 1    
    78   33   75 1    
    79   38   76 1    
    80   39   77 1    
    81   40   78 1    
    82   42   79 1    
@<TRIPOS>SUBSTRUCTURE
     1 AMINO      27 PERM              0 ****  ****    1  
     2 ISOPROPYL    10 PERM              0 ****  ****    1 ROOT 
@<TRIPOS>NORMAL
@<TRIPOS>FF_PBC
FORCE_FIELD_SETUP_FEATURE Force Field Setup information
v1.0  0 0.000000 0.000000 0.000000 0.000000 0.000000 0.000000 NONE 0 0 0 0 1 0 0 0 0 0 0 0 0
