#	Name:			B33
#	Creating user name:	ccollar
#	Creation time:		Mon Jan 17 12:36:25 2005

#	Modifying user name:	ccollar
#	Modification time:	Mon Jan 17 12:36:39 2005

@<TRIPOS>MOLECULE
B33
   77    80     2     1     0
SMALL
GASTEIGER


@<TRIPOS>ATOM
      1 C1         11.227239   15.617696    5.671291 C.ar      2 ISOPROPYL   -0.047264 
      2 C2         12.030004   15.633362    6.983100 C.3       2 ISOPROPYL   -0.025039 
      3 C3         11.720283   16.841851    7.917092 C.3       2 ISOPROPYL   -0.018536 
      4 C4         12.075065   18.306709    7.471810 C.3       2 ISOPROPYL    0.087645 
      5 C5         11.276017   18.772825    6.220363 C.3       2 ISOPROPYL    0.024946 
      6 C6          9.801529   18.791842    6.533660 C.2       2 ISOPROPYL    0.072142 
      7 C7          9.393187   19.060973    7.775643 C.2       2 ISOPROPYL    0.109797 
      8 C8         10.402201   19.342025    8.813281 C.2       2 ISOPROPYL    0.303213 
      9 O9         11.713555   19.140102    8.602786 O.3       2 ISOPROPYL   -0.303695 
     10 C1         13.607285   18.619649    7.295927 C.3       2 ISOPROPYL   -0.016541 
     11 C11         9.828292   15.586668    5.705204 C.ar      2 ISOPROPYL   -0.058572 
     12 C12         9.080635   15.610520    4.525087 C.ar      2 ISOPROPYL   -0.061501 
     13 O13        10.047813   19.789781    9.890910 O.2       2 ISOPROPYL   -0.258547 
     14 S14         7.654338   19.106732    8.189439 S.3       2 ISOPROPYL   -0.081047 
     15 C15         7.384386   17.355208    8.296209 C.ar      2 ISOPROPYL    0.017015 
     16 C16         8.162223   16.645868    9.216938 C.ar      2 ISOPROPYL   -0.042989 
     17 C17         8.208449   15.251401    9.207933 C.ar      2 ISOPROPYL   -0.026989 
     18 C18         7.402695   14.578717    8.288832 C.ar      2 ISOPROPYL    0.052545 
     19 C19         6.572165   15.293076    7.422870 C.ar      2 ISOPROPYL   -0.034286 
     20 C20         6.439973   16.690255    7.489864 C.ar      2 ISOPROPYL   -0.026451 
     21 O21         8.912771   18.556805    5.560165 O.3       2 ISOPROPYL   -0.362719 
     22 C22         9.126141   14.493506   10.174509 C.3       2 ISOPROPYL   -0.037883 
     23 C23         5.285805   17.417500    6.724363 C.3       2 ISOPROPYL   -0.011564 
     24 C24         4.452712   18.268242    7.732145 C.3       2 ISOPROPYL   -0.056009 
     25 C25         4.268715   16.424420    6.069761 C.3       2 ISOPROPYL   -0.056009 
     26 C26         5.824862   18.306176    5.563379 C.3       2 ISOPROPYL   -0.056009 
     27 N        7.409946   13.163834    8.237406 N.am      1 AMINO      -0.203184 
     28 C28         9.731577   15.665311    3.290386 C.ar      2 ISOPROPYL   -0.061742 
     29 C29        11.128143   15.666783    3.243728 C.ar      2 ISOPROPYL   -0.061501 
     30 C30        11.870882   15.623939    4.427546 C.ar      2 ISOPROPYL   -0.058572 
     31 C31        14.253649   18.268522    5.922335 C.3       2 ISOPROPYL   -0.060022 
     32 C32         4.024284   13.496495    8.713627 C.2       1 AMINO       0.109651 
     33 N33         3.330867   14.456434    9.129182 N.2       1 AMINO      -0.244939 
     34 S34         6.376085   12.326310    9.175122 S.o2      1 AMINO       0.131028 
     35 O35         5.865249   11.212308    8.402139 O.2       1 AMINO      -0.134390 
     36 O36         7.018496   12.080200   10.449872 O.2       1 AMINO      -0.134390 
     37 N37         5.171085   13.396288    9.402183 N.am      1 AMINO      -0.154162 
     38 C38         3.995021   15.138317   10.203333 C.2       1 AMINO       0.044872 
     39 C39         5.127064   14.419035   10.307312 C.2       1 AMINO       0.040933 
     40 C40        14.480140   18.056770    8.454158 C.3       2 ISOPROPYL   -0.060022 
     41 H1         13.109111   15.546164    6.807138 H         2 ISOPROPYL    0.031407 
     42 H2         11.734433   14.710770    7.510601 H         2 ISOPROPYL    0.031407 
     43 H3         12.220700   16.650492    8.878869 H         2 ISOPROPYL    0.029641 
     44 H4         10.648526   16.792444    8.139869 H         2 ISOPROPYL    0.029641 
     45 H5         11.498048   18.122499    5.366838 H         2 ISOPROPYL    0.036131 
     46 H6         11.555222   19.802530    5.949550 H         2 ISOPROPYL    0.036131 
     47 H7         13.692333   19.720324    7.361567 H         2 ISOPROPYL    0.032343 
     48 H8          9.308540   15.540697    6.651719 H         2 ISOPROPYL    0.062029 
     49 H9          7.996045   15.587256    4.568921 H         2 ISOPROPYL    0.061766 
     50 H10         8.748169   17.192535    9.948547 H         2 ISOPROPYL    0.063191 
     51 H11         6.036177   14.696864    6.699305 H         2 ISOPROPYL    0.063974 
     52 H12         9.278283   18.406585    4.695232 H         2 ISOPROPYL    0.216929 
     53 H13         9.453622   13.536371    9.742919 H         2 ISOPROPYL    0.027812 
     54 H14         8.580271   14.297615   11.108808 H         2 ISOPROPYL    0.027812 
     55 H15        10.023361   15.088692   10.402345 H         2 ISOPROPYL    0.027812 
     56 H16         4.070394   17.619654    8.535003 H         2 ISOPROPYL    0.023804 
     57 H17         3.593817   18.742781    7.233270 H         2 ISOPROPYL    0.023804 
     58 H18         5.030025   19.074532    8.197891 H         2 ISOPROPYL    0.023804 
     59 H19         3.871013   15.719258    6.814706 H         2 ISOPROPYL    0.023804 
     60 H20         4.727473   15.862271    5.241973 H         2 ISOPROPYL    0.023804 
     61 H21         3.407213   16.959103    5.640363 H         2 ISOPROPYL    0.023804 
     62 H22         6.386225   19.179784    5.911135 H         2 ISOPROPYL    0.023804 
     63 H23         4.995530   18.693665    4.951957 H         2 ISOPROPYL    0.023804 
     64 H24         6.479089   17.707212    4.912792 H         2 ISOPROPYL    0.023804 
     65 H25         8.069293   12.678528    7.664354 H         1 AMINO       0.175025 
     66 H26         9.154528   15.704266    2.371505 H         2 ISOPROPYL    0.061758 
     67 H27        11.637127   15.699494    2.285112 H         2 ISOPROPYL    0.061766 
     68 H28        12.953037   15.593978    4.368114 H         2 ISOPROPYL    0.062029 
     69 H29        13.758770   18.784704    5.086843 H         2 ISOPROPYL    0.023322 
     70 H30        14.243061   17.192924    5.723962 H         2 ISOPROPYL    0.023322 
     71 H31        15.306985   18.590712    5.916121 H         2 ISOPROPYL    0.023322 
     72 H32         3.729000   12.836918    7.898332 H         1 AMINO       0.101869 
     73 H33         3.666559   16.005012   10.775607 H         1 AMINO       0.084323 
     74 H34         5.916106   14.629456   11.027845 H         1 AMINO       0.081815 
     75 H35        15.498198   18.474818    8.408221 H         2 ISOPROPYL    0.023322 
     76 H36        14.564423   16.962351    8.385740 H         2 ISOPROPYL    0.023322 
     77 H37        14.051134   18.323051    9.432666 H         2 ISOPROPYL    0.023322 
@<TRIPOS>BOND
     1    2    1 1    
     2    2    3 1    
     3    3    4 1    
     4    4    5 1    
     5    5    6 1    
     6    6    7 2    
     7    7    8 1    
     8    8    9 1    
     9    4    9 1    
    10   37   32 am   
    11    1   11 ar   
    12   11   12 ar   
    13    8   13 2    
    14    7   14 1    
    15   14   15 1    
    16   15   16 ar   
    17   16   17 ar   
    18   17   18 ar   
    19   18   19 ar   
    20   19   20 ar   
    21   15   20 ar   
    22    6   21 1    
    23   17   22 1    
    24   20   23 1    
    25   23   24 1    
    26   23   25 1    
    27   23   26 1    
    28   27   34 1    
    29   12   28 ar   
    30   28   29 ar   
    31   29   30 ar   
    32    1   30 ar   
    33   10   31 1    
    34   32   33 2    
    35    4   10 1    
    36   34   35 2    
    37   18   27 1    
    38   34   36 2    
    39   34   37 1    
    40   33   38 1    
    41   38   39 2    
    42   37   39 am   
    43   10   40 1    
    44    2   41 1    
    45    2   42 1    
    46    3   43 1    
    47    3   44 1    
    48    5   45 1    
    49    5   46 1    
    50   10   47 1    
    51   11   48 1    
    52   12   49 1    
    53   16   50 1    
    54   19   51 1    
    55   21   52 1    
    56   22   53 1    
    57   22   54 1    
    58   22   55 1    
    59   24   56 1    
    60   24   57 1    
    61   24   58 1    
    62   25   59 1    
    63   25   60 1    
    64   25   61 1    
    65   26   62 1    
    66   26   63 1    
    67   26   64 1    
    68   27   65 1    
    69   28   66 1    
    70   29   67 1    
    71   30   68 1    
    72   31   69 1    
    73   31   70 1    
    74   31   71 1    
    75   32   72 1    
    76   38   73 1    
    77   39   74 1    
    78   40   75 1    
    79   40   76 1    
    80   40   77 1    
@<TRIPOS>SUBSTRUCTURE
     1 AMINO      27 PERM              0 ****  ****    1  
     2 ISOPROPYL    10 PERM              0 ****  ****    1 ROOT 
@<TRIPOS>NORMAL
@<TRIPOS>FF_PBC
FORCE_FIELD_SETUP_FEATURE Force Field Setup information
v1.0  0 0.000000 0.000000 0.000000 0.000000 0.000000 0.000000 NONE 0 0 0 0 1 0 0 0 0 0 0 0 0
