#	Name:			B36S
#	Creating user name:	ccollar
#	Creation time:		Fri Apr  9 13:45:02 2004

#	Modifying user name:	ccollar
#	Modification time:	Fri Apr  9 13:45:48 2004

@<TRIPOS>MOLECULE
B36S
   73    75     2     1     0
SMALL
GASTEIGER


@<TRIPOS>ATOM
      1 C1         -5.683589    3.926017   -2.368712 C.ar      2 ISOPROPYL   -0.047108 
      2 C2         -6.259721    2.545826   -2.003151 C.3       2 ISOPROPYL   -0.025037 
      3 C3         -6.687613    1.648127   -3.210840 C.3       2 ISOPROPYL   -0.018536 
      4 C4         -8.080787    1.893232   -3.893424 C.3       2 ISOPROPYL    0.087645 
      5 C5         -8.350292    3.403253   -4.132075 C.3       2 ISOPROPYL    0.024946 
      6 C6         -7.298251    3.928392   -5.065888 C.2       2 ISOPROPYL    0.072142 
      7 C7         -6.823216    3.156457   -6.053315 C.2       2 ISOPROPYL    0.109797 
      8 C8         -7.358083    1.785195   -6.161061 C.2       2 ISOPROPYL    0.303213 
      9 O9         -8.058432    1.210011   -5.170776 O.3       2 ISOPROPYL   -0.303695 
     10 C1         -9.264806    1.155897   -3.162807 C.3       2 ISOPROPYL   -0.016541 
     11 C11        -4.485105    4.017811   -3.085463 C.ar      2 ISOPROPYL   -0.056142 
     12 C12        -3.944609    5.263607   -3.417615 C.ar      2 ISOPROPYL   -0.031682 
     13 O13        -7.180127    1.148441   -7.186019 O.2       2 ISOPROPYL   -0.258547 
     14 S14        -5.623524    3.699963   -7.272334 S.3       2 ISOPROPYL   -0.081047 
     15 C15        -4.065757    3.160732   -6.600150 C.ar      2 ISOPROPYL    0.017060 
     16 C16        -3.985214    1.865620   -6.076980 C.ar      2 ISOPROPYL   -0.042265 
     17 C17        -2.897180    1.459540   -5.303444 C.ar      2 ISOPROPYL   -0.017081 
     18 C18        -1.855835    2.367826   -5.108689 C.ar      2 ISOPROPYL    0.109972 
     19 C19        -1.897771    3.621658   -5.722296 C.ar      2 ISOPROPYL   -0.024342 
     20 C20        -2.931762    3.995773   -6.597056 C.ar      2 ISOPROPYL   -0.025729 
     21 O21        -6.912071    5.194314   -4.854753 O.3       2 ISOPROPYL   -0.362719 
     22 C22        -2.872612    0.055681   -4.686916 C.3       2 ISOPROPYL   -0.037158 
     23 C23        -2.780233    5.250152   -7.519711 C.3       2 ISOPROPYL   -0.011542 
     24 C24        -2.971365    4.813383   -9.004869 C.3       2 ISOPROPYL   -0.056008 
     25 C25        -1.351546    5.884250   -7.445067 C.3       2 ISOPROPYL   -0.056008 
     26 C26        -3.781876    6.387313   -7.152034 C.3       2 ISOPROPYL   -0.056008 
     27 O27        -0.772845    2.028251   -4.302148 O.3       1 AMINO      -0.200490 
     28 C28        -4.611820    6.440269   -3.059634 C.ar      2 ISOPROPYL    0.072598 
     29 C29        -5.803595    6.353934   -2.337736 C.ar      2 ISOPROPYL   -0.031682 
     30 C30        -6.320369    5.108452   -1.969717 C.ar      2 ISOPROPYL   -0.056142 
     31 O31        -4.111309    7.698323   -3.407217 O.3       2 ISOPROPYL   -0.359832 
     32 C2        -10.634201    1.358005   -3.880175 C.3       2 ISOPROPYL   -0.060022 
     33 C3         -9.444188    1.462157   -1.649584 C.3       2 ISOPROPYL   -0.060022 
     34 S34         0.384804    1.536044   -5.123816 S.o2      1 AMINO       0.084008 
     35 O35        -0.030375    0.359892   -5.863161 O.2       1 AMINO      -0.147140 
     36 O36         0.960886    2.657339   -5.839860 O.2       1 AMINO      -0.147140 
     37 C37         1.560813    1.014777   -3.868369 C.3       1 AMINO       0.082071 
     38 H1         -7.064586    2.679157   -1.273649 H         2 ISOPROPYL    0.031407 
     39 H2         -5.440090    2.033755   -1.472005 H         2 ISOPROPYL    0.031407 
     40 H3         -6.679242    0.597113   -2.879600 H         2 ISOPROPYL    0.029641 
     41 H4         -5.889593    1.733177   -3.960125 H         2 ISOPROPYL    0.029641 
     42 H5         -8.382380    3.953183   -3.185263 H         2 ISOPROPYL    0.036131 
     43 H6         -9.300616    3.574615   -4.654895 H         2 ISOPROPYL    0.036131 
     44 H7         -9.050486    0.073677   -3.233779 H         2 ISOPROPYL    0.032343 
     45 H8         -3.959514    3.116894   -3.377545 H         2 ISOPROPYL    0.062108 
     46 H9         -3.003057    5.313768   -3.950079 H         2 ISOPROPYL    0.064328 
     47 H10        -4.777962    1.154633   -6.270927 H         2 ISOPROPYL    0.063214 
     48 H11        -1.082528    4.286580   -5.477485 H         2 ISOPROPYL    0.064734 
     49 H12        -6.237528    5.537056   -5.428380 H         2 ISOPROPYL    0.216929 
     50 H13        -2.610220   -0.672193   -5.468843 H         2 ISOPROPYL    0.027834 
     51 H14        -3.865337   -0.193904   -4.282621 H         2 ISOPROPYL    0.027834 
     52 H15        -2.139997   -0.018836   -3.869752 H         2 ISOPROPYL    0.027834 
     53 H16        -3.971878    4.414769   -9.209393 H         2 ISOPROPYL    0.023804 
     54 H17        -2.239559    4.030845   -9.258712 H         2 ISOPROPYL    0.023804 
     55 H18        -2.820727    5.663299   -9.688169 H         2 ISOPROPYL    0.023804 
     56 H19        -0.572958    5.131749   -7.646643 H         2 ISOPROPYL    0.023804 
     57 H20        -1.169897    6.347298   -6.462901 H         2 ISOPROPYL    0.023804 
     58 H21        -1.228373    6.682603   -8.193472 H         2 ISOPROPYL    0.023804 
     59 H22        -3.517760    7.323231   -7.667905 H         2 ISOPROPYL    0.023804 
     60 H23        -3.752894    6.575199   -6.069647 H         2 ISOPROPYL    0.023804 
     61 H24        -4.814552    6.165232   -7.440575 H         2 ISOPROPYL    0.023804 
     62 H25        -6.325135    7.264315   -2.062097 H         2 ISOPROPYL    0.064328 
     63 H26        -7.221275    5.074799   -1.365811 H         2 ISOPROPYL    0.062108 
     64 H27        -3.209331    7.691121   -3.706964 H         2 ISOPROPYL    0.217313 
     65 H28       -10.543459    1.222729   -4.968769 H         2 ISOPROPYL    0.023322 
     66 H29       -11.042864    2.359372   -3.678995 H         2 ISOPROPYL    0.023322 
     67 H30       -11.369805    0.623774   -3.514394 H         2 ISOPROPYL    0.023322 
     68 H31        -9.516579    2.545145   -1.472624 H         2 ISOPROPYL    0.023322 
     69 H32        -8.618521    1.037819   -1.060088 H         2 ISOPROPYL    0.023322 
     70 H33       -10.367798    0.996017   -1.272169 H         2 ISOPROPYL    0.023322 
     71 H34         2.466349    0.627508   -4.357315 H         1 AMINO       0.048925 
     72 H35         1.108702    0.224972   -3.250897 H         1 AMINO       0.048925 
     73 H36         1.823098    1.873759   -3.233754 H         1 AMINO       0.048925 
@<TRIPOS>BOND
     1    2    1 1    
     2    3    2 1    
     3    4    3 1    
     4    4    5 1    
     5    5    6 1    
     6    6    7 2    
     7    8    7 1    
     8    9    8 1    
     9    4    9 1    
    10   10   32 1    
    11    1   11 ar   
    12   11   12 ar   
    13    8   13 2    
    14    7   14 1    
    15   14   15 1    
    16   15   16 ar   
    17   16   17 ar   
    18   17   18 ar   
    19   19   18 ar   
    20   20   19 ar   
    21   15   20 ar   
    22    6   21 1    
    23   17   22 1    
    24   20   23 1    
    25   23   24 1    
    26   23   25 1    
    27   23   26 1    
    28   27   34 1    
    29   12   28 ar   
    30   29   28 ar   
    31   30   29 ar   
    32    1   30 ar   
    33   28   31 1    
    34   10   33 1    
    35   10    4 1    
    36   34   35 2    
    37   18   27 1    
    38   34   36 2    
    39   34   37 1    
    40    2   38 1    
    41    2   39 1    
    42    3   40 1    
    43    3   41 1    
    44    5   42 1    
    45    5   43 1    
    46   10   44 1    
    47   11   45 1    
    48   12   46 1    
    49   16   47 1    
    50   19   48 1    
    51   21   49 1    
    52   22   50 1    
    53   22   51 1    
    54   22   52 1    
    55   24   53 1    
    56   24   54 1    
    57   24   55 1    
    58   25   56 1    
    59   25   57 1    
    60   25   58 1    
    61   26   59 1    
    62   26   60 1    
    63   26   61 1    
    64   29   62 1    
    65   30   63 1    
    66   31   64 1    
    67   32   65 1    
    68   32   66 1    
    69   32   67 1    
    70   33   68 1    
    71   33   69 1    
    72   33   70 1    
    73   37   71 1    
    74   37   72 1    
    75   37   73 1    
@<TRIPOS>SUBSTRUCTURE
     1 AMINO      27 PERM              0 ****  ****    1  
     2 ISOPROPYL    10 PERM              0 ****  ****    1 ROOT 
@<TRIPOS>NORMAL
@<TRIPOS>FF_PBC
FORCE_FIELD_SETUP_FEATURE Force Field Setup information
v1.0  0 0.000000 0.000000 0.000000 0.000000 0.000000 0.000000 NONE 0 0 0 0 1 0 0 0 0 0 0 0 0
