#	Name:			B37
#	Creating user name:	ccollar
#	Creation time:		Mon Jan 17 12:40:16 2005

#	Modifying user name:	ccollar
#	Modification time:	Mon Jan 17 12:40:29 2005

@<TRIPOS>MOLECULE
B37
   80    83     2     1     0
SMALL
GASTEIGER


@<TRIPOS>ATOM
      1 C1         11.237560   15.789018    5.690401 C.ar      2 ISOPROPYL   -0.047108 
      2 C2         12.278484   15.850722    6.823142 C.3       2 ISOPROPYL   -0.025037 
      3 C3         11.969071   16.864561    7.973774 C.3       2 ISOPROPYL   -0.018536 
      4 C4         12.309333   18.384289    7.769633 C.3       2 ISOPROPYL    0.087645 
      5 C5         11.861942   18.894745    6.373560 C.3       2 ISOPROPYL    0.024946 
      6 C6         10.370126   18.754621    6.276023 C.2       2 ISOPROPYL    0.072142 
      7 C7          9.599501   18.955354    7.354165 C.2       2 ISOPROPYL    0.109797 
      8 C8         10.277722   19.291970    8.620937 C.2       2 ISOPROPYL    0.303213 
      9 O9         11.598439   19.124045    8.792539 O.3       2 ISOPROPYL   -0.303695 
     10 C1         13.806178   18.733469    8.111662 C.3       2 ISOPROPYL   -0.016541 
     11 C11         9.935544   15.351626    5.958473 C.ar      2 ISOPROPYL   -0.056142 
     12 C12         8.980674   15.282568    4.939674 C.ar      2 ISOPROPYL   -0.031682 
     13 O13         9.631021   19.755745    9.545250 O.2       2 ISOPROPYL   -0.258547 
     14 S14         7.806159   18.889220    7.340912 S.3       2 ISOPROPYL   -0.081047 
     15 C15         7.443065   17.221813    7.847971 C.ar      2 ISOPROPYL    0.017060 
     16 C16         8.149501   16.693348    8.933930 C.ar      2 ISOPROPYL   -0.042265 
     17 C17         8.122622   15.328726    9.224040 C.ar      2 ISOPROPYL   -0.017068 
     18 C18         7.320737   14.506174    8.432138 C.ar      2 ISOPROPYL    0.110374 
     19 C19         6.534331   15.059708    7.419633 C.ar      2 ISOPROPYL   -0.024329 
     20 C20         6.467210   16.444915    7.194132 C.ar      2 ISOPROPYL   -0.025729 
     21 O21         9.891942   18.453232    5.060792 O.3       2 ISOPROPYL   -0.362719 
     22 C22         8.963285   14.764164   10.375667 C.3       2 ISOPROPYL   -0.037158 
     23 C23         5.341688   17.051609    6.292717 C.3       2 ISOPROPYL   -0.011542 
     24 C24         4.547694   18.111675    7.116620 C.3       2 ISOPROPYL   -0.056008 
     25 C25         4.286952   15.985439    5.845864 C.3       2 ISOPROPYL   -0.056008 
     26 C26         5.902652   17.685898    4.983334 C.3       2 ISOPROPYL   -0.056008 
     27 O27         7.302929   13.131632    8.648997 O.3       1 AMINO      -0.196110 
     28 C28         9.308397   15.677062    3.637824 C.ar      2 ISOPROPYL    0.072598 
     29 C29        10.608332   16.105979    3.363712 C.ar      2 ISOPROPYL   -0.031682 
     30 C30        11.573177   16.133958    4.374646 C.ar      2 ISOPROPYL   -0.056142 
     31 O31         8.364565   15.649815    2.607080 O.3       2 ISOPROPYL   -0.359832 
     32 C2         14.120018   20.253014    7.959450 C.3       2 ISOPROPYL   -0.060022 
     33 C3         14.897411   17.920886    7.360167 C.3       2 ISOPROPYL   -0.060022 
     34 S34         6.118309   12.730095    9.480466 S.o2      1 AMINO       0.116731 
     35 O35         6.159116   13.433676   10.748336 O.2       1 AMINO      -0.141559 
     36 O36         4.921950   12.778734    8.662164 O.2       1 AMINO      -0.141559 
     37 C37         6.583536   11.037321    9.741612 C.ar      1 AMINO       0.117468 
     38 C38         7.430990   10.703426   10.802129 C.ar      1 AMINO      -0.034379 
     39 C39         7.815551    9.374281   11.001893 C.ar      1 AMINO      -0.059879 
     40 C40         7.359714    8.377761   10.133808 C.ar      1 AMINO      -0.061646 
     41 C41         6.524263    8.711770    9.063798 C.ar      1 AMINO      -0.059879 
     42 C42         6.141365   10.041670    8.865444 C.ar      1 AMINO      -0.034379 
     43 H1         13.270098   16.002091    6.385554 H         2 ISOPROPYL    0.031407 
     44 H2         12.280594   14.836027    7.255051 H         2 ISOPROPYL    0.031407 
     45 H3         12.511171   16.538625    8.876174 H         2 ISOPROPYL    0.029641 
     46 H4         10.902129   16.753305    8.207843 H         2 ISOPROPYL    0.029641 
     47 H5         12.386237   18.363014    5.572155 H         2 ISOPROPYL    0.036131 
     48 H6         12.051931   19.968893    6.247223 H         2 ISOPROPYL    0.036131 
     49 H7         13.941863   18.509328    9.185682 H         2 ISOPROPYL    0.032343 
     50 H8          9.662894   15.049781    6.962282 H         2 ISOPROPYL    0.062108 
     51 H9          7.985906   14.917228    5.162215 H         2 ISOPROPYL    0.064328 
     52 H10         8.731666   17.348281    9.569296 H         2 ISOPROPYL    0.063214 
     53 H11         5.982698   14.351281    6.819230 H         2 ISOPROPYL    0.064734 
     54 H12         8.951331   18.348032    4.985258 H         2 ISOPROPYL    0.216929 
     55 H13         8.428208   14.929807   11.322318 H         2 ISOPROPYL    0.027834 
     56 H14         9.937243   15.274739   10.419787 H         2 ISOPROPYL    0.027834 
     57 H15         9.146468   13.686511   10.252157 H         2 ISOPROPYL    0.027834 
     58 H16         5.165213   18.961009    7.431298 H         2 ISOPROPYL    0.023804 
     59 H17         4.133595   17.643287    8.022969 H         2 ISOPROPYL    0.023804 
     60 H18         3.713845   18.524294    6.528087 H         2 ISOPROPYL    0.023804 
     61 H19         3.871327   15.450783    6.714482 H         2 ISOPROPYL    0.023804 
     62 H20         4.724033   15.260183    5.142272 H         2 ISOPROPYL    0.023804 
     63 H21         3.439814   16.455482    5.322395 H         2 ISOPROPYL    0.023804 
     64 H22         5.088189   17.912861    4.278401 H         2 ISOPROPYL    0.023804 
     65 H23         6.591420   16.983539    4.493359 H         2 ISOPROPYL    0.023804 
     66 H24         6.428646   18.631569    5.150794 H         2 ISOPROPYL    0.023804 
     67 H25        10.864354   16.415838    2.356127 H         2 ISOPROPYL    0.064328 
     68 H26        12.587542   16.423597    4.120393 H         2 ISOPROPYL    0.062108 
     69 H27         7.577152   15.157979    2.810879 H         2 ISOPROPYL    0.217313 
     70 H28        13.334296   20.874986    8.414827 H         2 ISOPROPYL    0.023322 
     71 H29        14.225229   20.531692    6.900435 H         2 ISOPROPYL    0.023322 
     72 H30        15.070345   20.499421    8.459619 H         2 ISOPROPYL    0.023322 
     73 H31        14.745476   17.969437    6.272052 H         2 ISOPROPYL    0.023322 
     74 H32        14.909069   16.872922    7.693281 H         2 ISOPROPYL    0.023322 
     75 H33        15.896598   18.328461    7.579932 H         2 ISOPROPYL    0.023322 
     76 H34         7.790851   11.478620   11.470447 H         1 AMINO       0.063729 
     77 H35         8.468167    9.116158   11.830578 H         1 AMINO       0.061815 
     78 H36         7.655036    7.344517   10.290240 H         1 AMINO       0.061759 
     79 H37         6.173249    7.938635    8.386798 H         1 AMINO       0.061815 
     80 H38         5.500519   10.302226    8.029783 H         1 AMINO       0.063729 
@<TRIPOS>BOND
     1    2    1 1    
     2    3    2 1    
     3    4    3 1    
     4    4    5 1    
     5    5    6 1    
     6    6    7 2    
     7    8    7 1    
     8    9    8 1    
     9    4    9 1    
    10   10   32 1    
    11    1   11 ar   
    12   11   12 ar   
    13    8   13 2    
    14    7   14 1    
    15   14   15 1    
    16   15   16 ar   
    17   16   17 ar   
    18   17   18 ar   
    19   19   18 ar   
    20   20   19 ar   
    21   15   20 ar   
    22    6   21 1    
    23   17   22 1    
    24   20   23 1    
    25   23   24 1    
    26   23   25 1    
    27   23   26 1    
    28   27   34 1    
    29   12   28 ar   
    30   29   28 ar   
    31   30   29 ar   
    32    1   30 ar   
    33   28   31 1    
    34   10   33 1    
    35   10    4 1    
    36   34   35 2    
    37   18   27 1    
    38   34   36 2    
    39   34   37 1    
    40   37   38 ar   
    41   38   39 ar   
    42   39   40 ar   
    43   40   41 ar   
    44   41   42 ar   
    45   37   42 ar   
    46    2   43 1    
    47    2   44 1    
    48    3   45 1    
    49    3   46 1    
    50    5   47 1    
    51    5   48 1    
    52   10   49 1    
    53   11   50 1    
    54   12   51 1    
    55   16   52 1    
    56   19   53 1    
    57   21   54 1    
    58   22   55 1    
    59   22   56 1    
    60   22   57 1    
    61   24   58 1    
    62   24   59 1    
    63   24   60 1    
    64   25   61 1    
    65   25   62 1    
    66   25   63 1    
    67   26   64 1    
    68   26   65 1    
    69   26   66 1    
    70   29   67 1    
    71   30   68 1    
    72   31   69 1    
    73   32   70 1    
    74   32   71 1    
    75   32   72 1    
    76   33   73 1    
    77   33   74 1    
    78   33   75 1    
    79   38   76 1    
    80   39   77 1    
    81   40   78 1    
    82   41   79 1    
    83   42   80 1    
@<TRIPOS>SUBSTRUCTURE
     1 AMINO      27 PERM              0 ****  ****    1  
     2 ISOPROPYL    10 PERM              0 ****  ****    1 ROOT 
@<TRIPOS>NORMAL
@<TRIPOS>FF_PBC
FORCE_FIELD_SETUP_FEATURE Force Field Setup information
v1.0  0 0.000000 0.000000 0.000000 0.000000 0.000000 0.000000 NONE 0 0 0 0 1 0 0 0 0 0 0 0 0
