#	Name:			B39
#	Creating user name:	ccollar
#	Creation time:		Mon Jan 17 12:52:12 2005

#	Modifying user name:	ccollar
#	Modification time:	Mon Jan 17 12:52:27 2005

@<TRIPOS>MOLECULE
B39
   81    84     3     1     0
SMALL
GASTEIGER


@<TRIPOS>ATOM
      1 C1         11.237172   15.788684    5.690244 C.ar      2 ISOPROPYL   -0.047108 
      2 C2         12.277887   15.850086    6.823198 C.3       2 ISOPROPYL   -0.025037 
      3 C3         11.968442   16.863721    7.974037 C.3       2 ISOPROPYL   -0.018536 
      4 C4         12.308775   18.383428    7.770050 C.3       2 ISOPROPYL    0.087645 
      5 C5         11.861403   18.893822    6.373961 C.3       2 ISOPROPYL    0.024946 
      6 C6         10.369546   18.753993    6.276421 C.2       2 ISOPROPYL    0.072142 
      7 C7          9.598914   18.955267    7.354459 C.2       2 ISOPROPYL    0.109797 
      8 C8         10.277223   19.291706    8.621238 C.2       2 ISOPROPYL    0.303213 
      9 O9         11.597889   19.123238    8.792963 O.3       2 ISOPROPYL   -0.303695 
     10 C1         13.805681   18.732475    8.112012 C.3       2 ISOPROPYL   -0.016541 
     11 C11         9.934893   15.352026    5.958194 C.ar      2 ISOPROPYL   -0.056142 
     12 C12         8.980266   15.282870    4.939190 C.ar      2 ISOPROPYL   -0.031682 
     13 O13         9.630624   19.755800    9.545467 O.2       2 ISOPROPYL   -0.258547 
     14 S14         7.805458   18.889962    7.340911 S.3       2 ISOPROPYL   -0.081047 
     15 C15         7.442316   17.222783    7.848471 C.ar      2 ISOPROPYL    0.017060 
     16 C16         8.148137   16.695048    8.935130 C.ar      2 ISOPROPYL   -0.042265 
     17 C17         8.123582   15.330184    9.224186 C.ar      2 ISOPROPYL   -0.017068 
     18 C18         7.324484   14.506590    8.430425 C.ar      2 ISOPROPYL    0.110374 
     19 C19         6.536221   15.059906    7.419160 C.ar      2 ISOPROPYL   -0.024329 
     20 C20         6.467321   16.445161    7.194250 C.ar      2 ISOPROPYL   -0.025729 
     21 O21         9.891318   18.452322    5.061279 O.3       2 ISOPROPYL   -0.362719 
     22 C22         8.964640   14.768277   10.376851 C.3       2 ISOPROPYL   -0.037158 
     23 C23         5.341284   17.051186    6.292953 C.3       2 ISOPROPYL   -0.011542 
     24 C24         4.547104   18.111499    7.116387 C.3       2 ISOPROPYL   -0.056008 
     25 C25         4.286829   15.984465    5.846801 C.3       2 ISOPROPYL   -0.056008 
     26 C26         5.901704   17.685121    4.983164 C.3       2 ISOPROPYL   -0.056008 
     27 O27         7.311930   13.131181    8.643558 O.3       1 AMINO      -0.196110 
     28 C28         9.308382   15.676841    3.637289 C.ar      2 ISOPROPYL    0.072598 
     29 C29        10.608518   16.105220    3.363338 C.ar      2 ISOPROPYL   -0.031682 
     30 C30        11.573172   16.133147    4.374462 C.ar      2 ISOPROPYL   -0.056142 
     31 O31         8.364769   15.649571    2.606351 O.3       2 ISOPROPYL   -0.359832 
     32 C2         14.119582   20.252014    7.959930 C.3       2 ISOPROPYL   -0.060022 
     33 C3         14.896846   17.919986    7.360307 C.3       2 ISOPROPYL   -0.060022 
     34 S34         6.136661   12.717986    9.482771 S.o2      1 AMINO       0.116732 
     35 O35         6.182067   13.433974   10.743496 O.2       1 AMINO      -0.141559 
     36 O36         4.936919   12.782917    8.670667 O.2       1 AMINO      -0.141559 
     37 C37         6.532896   11.015124    9.787169 C.ar      1 AMINO       0.117542 
     38 C38         7.381229   10.676952   10.845610 C.ar      1 AMINO      -0.033165 
     39 C39         7.713707    9.339335   11.079931 C.ar      1 AMINO      -0.042473 
     40 C40         7.205176    8.336469   10.248800 C.ar      1 AMINO       0.051887 
     41 C41         6.367982    8.674580    9.181091 C.ar      1 AMINO      -0.042473 
     42 C42         6.037033   10.012865    8.948031 C.ar      1 AMINO      -0.033165 
     43 H1         13.269589   16.001408    6.385796 H         2 ISOPROPYL    0.031407 
     44 H2         12.279876   14.835320    7.254922 H         2 ISOPROPYL    0.031407 
     45 H3         12.510605   16.537656    8.876352 H         2 ISOPROPYL    0.029641 
     46 H4         10.901496   16.752692    8.208258 H         2 ISOPROPYL    0.029641 
     47 H5         12.385647   18.362080    5.572524 H         2 ISOPROPYL    0.036131 
     48 H6         12.051502   19.967947    6.247658 H         2 ISOPROPYL    0.036131 
     49 H7         13.941437   18.508206    9.185998 H         2 ISOPROPYL    0.032343 
     50 H8          9.661910   15.050847    6.962085 H         2 ISOPROPYL    0.062108 
     51 H9          7.985357   14.917856    5.161540 H         2 ISOPROPYL    0.064328 
     52 H10         8.728250   17.350611    9.571749 H         2 ISOPROPYL    0.063214 
     53 H11         5.984718   14.351303    6.818861 H         2 ISOPROPYL    0.064734 
     54 H12         8.950693   18.347231    4.985701 H         2 ISOPROPYL    0.216929 
     55 H13         9.943779   15.269737   10.409494 H         2 ISOPROPYL    0.027834 
     56 H14         9.136408   13.687561   10.264449 H         2 ISOPROPYL    0.027834 
     57 H15         8.436991   14.949709   11.324801 H         2 ISOPROPYL    0.027834 
     58 H16         3.713029   18.523600    6.527775 H         2 ISOPROPYL    0.023804 
     59 H17         5.164460   18.961186    7.430450 H         2 ISOPROPYL    0.023804 
     60 H18         4.133308   17.643480    8.023063 H         2 ISOPROPYL    0.023804 
     61 H19         4.723822   15.259386    5.142970 H         2 ISOPROPYL    0.023804 
     62 H20         3.439078   16.454023    5.323861 H         2 ISOPROPYL    0.023804 
     63 H21         3.872145   15.449670    6.715767 H         2 ISOPROPYL    0.023804 
     64 H22         6.427657   18.630879    5.150306 H         2 ISOPROPYL    0.023804 
     65 H23         5.086950   17.911730    4.278426 H         2 ISOPROPYL    0.023804 
     66 H24         6.590476   16.982803    4.493153 H         2 ISOPROPYL    0.023804 
     67 H25        10.864840   16.414679    2.355716 H         2 ISOPROPYL    0.064328 
     68 H26        12.587694   16.422358    4.120348 H         2 ISOPROPYL    0.062108 
     69 H27         7.576882   15.158563    2.810284 H         2 ISOPROPYL    0.217313 
     70 H28        15.070024   20.498319    8.459935 H         2 ISOPROPYL    0.023322 
     71 H29        13.333968   20.873954    8.415533 H         2 ISOPROPYL    0.023322 
     72 H30        14.224602   20.530765    6.900914 H         2 ISOPROPYL    0.023322 
     73 H31        15.896065   18.327531    7.579972 H         2 ISOPROPYL    0.023322 
     74 H32        14.744766   17.968693    6.272221 H         2 ISOPROPYL    0.023322 
     75 H33        14.908594   16.871983    7.693287 H         2 ISOPROPYL    0.023322 
     76 H34         7.782562   11.455992   11.485511 H         1 AMINO       0.063766 
     77 H35         8.367352    9.080428   11.907538 H         1 AMINO       0.063090 
     78 H36         5.974460    7.898237    8.531716 H         1 AMINO       0.063090 
     79 C           7.543919    6.956927   10.491829 C.1       3 CN          0.099155 
     80 H37         5.394678   10.274575    8.113724 H         1 AMINO       0.063766 
     81 N           7.816081    5.848677   10.687020 N.1       3 CN         -0.190869 
@<TRIPOS>BOND
     1    2    1 1    
     2    3    2 1    
     3    4    3 1    
     4    4    5 1    
     5    5    6 1    
     6    6    7 2    
     7    8    7 1    
     8    9    8 1    
     9    4    9 1    
    10   10   32 1    
    11    1   11 ar   
    12   11   12 ar   
    13    8   13 2    
    14    7   14 1    
    15   14   15 1    
    16   15   16 ar   
    17   16   17 ar   
    18   17   18 ar   
    19   19   18 ar   
    20   20   19 ar   
    21   15   20 ar   
    22    6   21 1    
    23   17   22 1    
    24   20   23 1    
    25   23   24 1    
    26   23   25 1    
    27   23   26 1    
    28   27   34 1    
    29   12   28 ar   
    30   29   28 ar   
    31   30   29 ar   
    32    1   30 ar   
    33   28   31 1    
    34   10   33 1    
    35   10    4 1    
    36   34   35 2    
    37   18   27 1    
    38   34   36 2    
    39   34   37 1    
    40   37   38 ar   
    41   38   39 ar   
    42   39   40 ar   
    43   40   41 ar   
    44   41   42 ar   
    45   37   42 ar   
    46    2   43 1    
    47    2   44 1    
    48    3   45 1    
    49    3   46 1    
    50    5   47 1    
    51    5   48 1    
    52   10   49 1    
    53   11   50 1    
    54   12   51 1    
    55   16   52 1    
    56   19   53 1    
    57   21   54 1    
    58   22   55 1    
    59   22   56 1    
    60   22   57 1    
    61   24   58 1    
    62   24   59 1    
    63   24   60 1    
    64   25   61 1    
    65   25   62 1    
    66   25   63 1    
    67   26   64 1    
    68   26   65 1    
    69   26   66 1    
    70   29   67 1    
    71   30   68 1    
    72   31   69 1    
    73   32   70 1    
    74   32   71 1    
    75   32   72 1    
    76   33   73 1    
    77   33   74 1    
    78   33   75 1    
    79   38   76 1    
    80   39   77 1    
    81   41   78 1    
    82   79   81 3    
    83   42   80 1    
    84   40   79 1    
@<TRIPOS>SUBSTRUCTURE
     1 AMINO      27 PERM              0 ****  ****    2  
     2 ISOPROPYL    10 PERM              0 ****  ****    1 ROOT 
     3 CN         79 PERM              0 ****  ****    1  
@<TRIPOS>NORMAL
@<TRIPOS>FF_PBC
FORCE_FIELD_SETUP_FEATURE Force Field Setup information
v1.0  0 0.000000 0.000000 0.000000 0.000000 0.000000 0.000000 NONE 0 0 0 0 1 0 0 0 0 0 0 0 0
