#	Name:			B40
#	Creating user name:	ccollar
#	Creation time:		Mon Jan 17 12:52:56 2005

#	Modifying user name:	ccollar
#	Modification time:	Mon Jan 17 12:53:12 2005

@<TRIPOS>MOLECULE
B40
   77    80     2     1     0
SMALL
GASTEIGER


@<TRIPOS>ATOM
      1 C1         11.235964   15.788086    5.689379 C.ar      2 ISOPROPYL   -0.047108 
      2 C2         12.270185   15.841474    6.828607 C.3       2 ISOPROPYL   -0.025037 
      3 C3         11.964859   16.860981    7.975155 C.3       2 ISOPROPYL   -0.018536 
      4 C4         12.306530   18.379649    7.764991 C.3       2 ISOPROPYL    0.087645 
      5 C5         11.857731   18.886723    6.367998 C.3       2 ISOPROPYL    0.024946 
      6 C6         10.365682   18.747677    6.272350 C.2       2 ISOPROPYL    0.072142 
      7 C7          9.596918   18.950650    7.351303 C.2       2 ISOPROPYL    0.109797 
      8 C8         10.276545   19.290146    8.616531 C.2       2 ISOPROPYL    0.303213 
      9 O9         11.597528   19.123017    8.786674 O.3       2 ISOPROPYL   -0.303695 
     10 C1         13.804173   18.728522    8.103664 C.3       2 ISOPROPYL   -0.016541 
     11 C11         9.926760   15.367489    5.949540 C.ar      2 ISOPROPYL   -0.056142 
     12 C12         8.979515   15.304903    4.923214 C.ar      2 ISOPROPYL   -0.031682 
     13 O13         9.630591   19.755116    9.540815 O.2       2 ISOPROPYL   -0.258547 
     14 S14         7.804032   18.883603    7.339971 S.3       2 ISOPROPYL   -0.081047 
     15 C15         7.442496   17.218509    7.855532 C.ar      2 ISOPROPYL    0.017060 
     16 C16         8.147893   16.693030    8.943303 C.ar      2 ISOPROPYL   -0.042265 
     17 C17         8.104330   15.332454    9.249064 C.ar      2 ISOPROPYL   -0.017068 
     18 C18         7.307487   14.505392    8.455813 C.ar      2 ISOPROPYL    0.110392 
     19 C19         6.551060   15.052039    7.417168 C.ar      2 ISOPROPYL   -0.024329 
     20 C20         6.467570   16.438069    7.205782 C.ar      2 ISOPROPYL   -0.025729 
     21 O21         9.885109   18.444885    5.058324 O.3       2 ISOPROPYL   -0.362719 
     22 C22         8.923321   14.793096   10.427535 C.3       2 ISOPROPYL   -0.037158 
     23 C23         5.323945   17.040252    6.326462 C.3       2 ISOPROPYL   -0.011542 
     24 C24         4.547381   18.106350    7.159753 C.3       2 ISOPROPYL   -0.056008 
     25 C25         4.260324   15.969106    5.914601 C.3       2 ISOPROPYL   -0.056008 
     26 C26         5.857758   17.665250    5.002037 C.3       2 ISOPROPYL   -0.056008 
     27 O27         7.252064   13.137410    8.707777 O.3       1 AMINO      -0.195692 
     28 C28         9.321003   15.692372    3.622822 C.ar      2 ISOPROPYL    0.072598 
     29 C29        10.627837   16.105097    3.356966 C.ar      2 ISOPROPYL   -0.031682 
     30 C30        11.585365   16.124615    4.375001 C.ar      2 ISOPROPYL   -0.056142 
     31 O31         8.384117   15.674127    2.585602 O.3       2 ISOPROPYL   -0.359832 
     32 C2         14.119080   20.247269    7.945924 C.3       2 ISOPROPYL   -0.060022 
     33 C3         14.893364   17.912373    7.353042 C.3       2 ISOPROPYL   -0.060022 
     34 S34         6.020468   12.788841    9.499128 S.o2      1 AMINO       0.123057 
     35 O35         4.910240   12.772041    8.566651 O.2       1 AMINO      -0.141045 
     36 O36         6.326015   11.573909   10.228074 O.2       1 AMINO      -0.141045 
     37 C37         5.677146   14.064479   10.700475 C.2       1 AMINO       0.154655 
     38 C38         6.037803   13.987566   11.982896 C.2       1 AMINO      -0.027085 
     39 C39         5.644620   15.187355   12.733997 C.2       1 AMINO      -0.052782 
     40 C40         5.014687   16.082995   11.968968 C.2       1 AMINO      -0.022417 
     41 S41         4.827495   15.569953   10.274025 S.3       1 AMINO      -0.076011 
     42 H1         13.266357   15.981242    6.397546 H         2 ISOPROPYL    0.031407 
     43 H2         12.258854   14.827895    7.263005 H         2 ISOPROPYL    0.031407 
     44 H3         12.507910   16.537289    8.877779 H         2 ISOPROPYL    0.029641 
     45 H4         10.898208   16.751999    8.211238 H         2 ISOPROPYL    0.029641 
     46 H5         12.381007   18.352813    5.567421 H         2 ISOPROPYL    0.036131 
     47 H6         12.048120   19.960439    6.238700 H         2 ISOPROPYL    0.036131 
     48 H7         13.941356   18.507969    9.178235 H         2 ISOPROPYL    0.032343 
     49 H8          9.641987   15.073940    6.952601 H         2 ISOPROPYL    0.062108 
     50 H9          7.979601   14.950052    5.138648 H         2 ISOPROPYL    0.064328 
     51 H10         8.742211   17.345681    9.569631 H         2 ISOPROPYL    0.063214 
     52 H11         6.032525   14.342727    6.788651 H         2 ISOPROPYL    0.064734 
     53 H12         8.944028   18.341930    4.983605 H         2 ISOPROPYL    0.216929 
     54 H13         8.613618   15.308680   11.348932 H         2 ISOPROPYL    0.027834 
     55 H14         9.989529   14.994618   10.244800 H         2 ISOPROPYL    0.027834 
     56 H15         8.791154   13.710508   10.569330 H         2 ISOPROPYL    0.027834 
     57 H16         4.150515   17.645230    8.077132 H         2 ISOPROPYL    0.023804 
     58 H17         3.702051   18.515703    6.585571 H         2 ISOPROPYL    0.023804 
     59 H18         5.170192   18.958097    7.456170 H         2 ISOPROPYL    0.023804 
     60 H19         3.880120   15.431116    6.797464 H         2 ISOPROPYL    0.023804 
     61 H20         4.674843   15.246284    5.195288 H         2 ISOPROPYL    0.023804 
     62 H21         3.393586   16.435357    5.420757 H         2 ISOPROPYL    0.023804 
     63 H22         5.025502   17.905138    4.322565 H         2 ISOPROPYL    0.023804 
     64 H23         6.520473   16.952370    4.491618 H         2 ISOPROPYL    0.023804 
     65 H24         6.405709   18.600814    5.156224 H         2 ISOPROPYL    0.023804 
     66 H25        10.894875   16.408922    2.350417 H         2 ISOPROPYL    0.064328 
     67 H26        12.605025   16.401357    4.127500 H         2 ISOPROPYL    0.062108 
     68 H27         7.590917   15.189412    2.783900 H         2 ISOPROPYL    0.217313 
     69 H28        15.070217   20.494639    8.444066 H         2 ISOPROPYL    0.023322 
     70 H29        13.334408   20.871395    8.400160 H         2 ISOPROPYL    0.023322 
     71 H30        14.223236   20.522199    6.885826 H         2 ISOPROPYL    0.023322 
     72 H31        15.893103   18.321568    7.567181 H         2 ISOPROPYL    0.023322 
     73 H32        14.737794   17.954539    6.265185 H         2 ISOPROPYL    0.023322 
     74 H33        14.906747   16.866357    7.692076 H         2 ISOPROPYL    0.023322 
     75 H34         6.564969   13.140484   12.419698 H         1 AMINO       0.064279 
     76 H35         5.848433   15.325729   13.795808 H         1 AMINO       0.062342 
     77 H36         4.644457   17.040510   12.334542 H         1 AMINO       0.069379 
@<TRIPOS>BOND
     1    2    1 1    
     2    3    2 1    
     3    4    3 1    
     4    4    5 1    
     5    5    6 1    
     6    6    7 2    
     7    8    7 1    
     8    9    8 1    
     9    4    9 1    
    10   10   32 1    
    11    1   11 ar   
    12   11   12 ar   
    13    8   13 2    
    14    7   14 1    
    15   14   15 1    
    16   15   16 ar   
    17   16   17 ar   
    18   17   18 ar   
    19   19   18 ar   
    20   20   19 ar   
    21   15   20 ar   
    22    6   21 1    
    23   17   22 1    
    24   20   23 1    
    25   23   24 1    
    26   23   25 1    
    27   23   26 1    
    28   27   34 1    
    29   12   28 ar   
    30   29   28 ar   
    31   30   29 ar   
    32    1   30 ar   
    33   28   31 1    
    34   10   33 1    
    35   10    4 1    
    36   34   35 2    
    37   18   27 1    
    38   34   36 2    
    39   34   37 1    
    40   37   38 2    
    41   38   39 1    
    42   39   40 2    
    43   40   41 1    
    44   37   41 1    
    45    2   42 1    
    46    2   43 1    
    47    3   44 1    
    48    3   45 1    
    49    5   46 1    
    50    5   47 1    
    51   10   48 1    
    52   11   49 1    
    53   12   50 1    
    54   16   51 1    
    55   19   52 1    
    56   21   53 1    
    57   22   54 1    
    58   22   55 1    
    59   22   56 1    
    60   24   57 1    
    61   24   58 1    
    62   24   59 1    
    63   25   60 1    
    64   25   61 1    
    65   25   62 1    
    66   26   63 1    
    67   26   64 1    
    68   26   65 1    
    69   29   66 1    
    70   30   67 1    
    71   31   68 1    
    72   32   69 1    
    73   32   70 1    
    74   32   71 1    
    75   33   72 1    
    76   33   73 1    
    77   33   74 1    
    78   38   75 1    
    79   39   76 1    
    80   40   77 1    
@<TRIPOS>SUBSTRUCTURE
     1 AMINO      27 PERM              0 ****  ****    1  
     2 ISOPROPYL    10 PERM              0 ****  ****    1 ROOT 
@<TRIPOS>NORMAL
@<TRIPOS>FF_PBC
FORCE_FIELD_SETUP_FEATURE Force Field Setup information
v1.0  0 0.000000 0.000000 0.000000 0.000000 0.000000 0.000000 NONE 0 0 0 0 1 0 0 0 0 0 0 0 0
