#	Name:			B41
#	Creating user name:	ccollar
#	Creation time:		Mon Jan 17 12:53:46 2005

#	Modifying user name:	ccollar
#	Modification time:	Mon Jan 17 12:54:06 2005

@<TRIPOS>MOLECULE
B41
   77    80     2     1     0
SMALL
GASTEIGER


@<TRIPOS>ATOM
      1 C1         11.239551   15.616553    5.676600 C.ar      2 ISOPROPYL   -0.047108 
      2 C2         12.055275   15.636913    6.979802 C.3       2 ISOPROPYL   -0.025037 
      3 C3         11.738077   16.843488    7.913780 C.3       2 ISOPROPYL   -0.018536 
      4 C4         12.087660   18.309403    7.467259 C.3       2 ISOPROPYL    0.087645 
      5 C5         11.291785   18.771455    6.212202 C.3       2 ISOPROPYL    0.024946 
      6 C6          9.815898   18.783672    6.517866 C.2       2 ISOPROPYL    0.072142 
      7 C7          9.401502   19.053900    7.757534 C.2       2 ISOPROPYL    0.109797 
      8 C8         10.404438   19.338675    8.800189 C.2       2 ISOPROPYL    0.303213 
      9 O9         11.717609   19.141680    8.596175 O.3       2 ISOPROPYL   -0.303695 
     10 C1         13.619129   18.629428    7.296075 C.3       2 ISOPROPYL   -0.016541 
     11 C11        11.865944   15.648988    4.425024 C.ar      2 ISOPROPYL   -0.056142 
     12 C12        11.103076   15.706405    3.254832 C.ar      2 ISOPROPYL   -0.031682 
     13 O13        10.043205   19.785355    9.875971 O.2       2 ISOPROPYL   -0.258547 
     14 S14         7.660947   19.099746    8.160847 S.3       2 ISOPROPYL   -0.081047 
     15 C15         7.384515   17.350444    8.282901 C.ar      2 ISOPROPYL    0.017060 
     16 C16         8.144284   16.645484    9.221867 C.ar      2 ISOPROPYL   -0.042264 
     17 C17         8.172297   15.250335    9.232697 C.ar      2 ISOPROPYL   -0.017023 
     18 C18         7.396155   14.571579    8.291841 C.ar      2 ISOPROPYL    0.111714 
     19 C19         6.596210   15.285307    7.396225 C.ar      2 ISOPROPYL   -0.024284 
     20 C20         6.450266   16.680550    7.469624 C.ar      2 ISOPROPYL   -0.025728 
     21 O21         8.932250   18.543083    5.540594 O.3       2 ISOPROPYL   -0.362719 
     22 C22         9.047239   14.503871   10.246744 C.3       2 ISOPROPYL   -0.037157 
     23 C23         5.291928   17.398905    6.703623 C.3       2 ISOPROPYL   -0.011542 
     24 C24         4.465244   18.264757    7.704533 C.3       2 ISOPROPYL   -0.056008 
     25 C25         4.271149   16.392966    6.074488 C.3       2 ISOPROPYL   -0.056008 
     26 C26         5.826332   18.272025    5.529390 C.3       2 ISOPROPYL   -0.056008 
     27 O27         7.421462   13.181203    8.238748 O.3       1 AMINO      -0.183743 
     28 C28         9.707578   15.694074    3.313751 C.ar      2 ISOPROPYL    0.072598 
     29 C29         9.076906   15.595503    4.559290 C.ar      2 ISOPROPYL   -0.031682 
     30 C30         9.842538   15.555909    5.727555 C.ar      2 ISOPROPYL   -0.056142 
     31 C31        14.271014   18.285674    5.922990 C.3       2 ISOPROPYL   -0.060022 
     32 C32         7.518420   10.349362    9.655614 C.2       1 AMINO       0.110283 
     33 N33         7.557084    9.133299    9.348114 N.2       1 AMINO      -0.244918 
     34 S34         6.258358   12.587985    8.979905 S.o2      1 AMINO       0.178103 
     35 O35         6.321510   13.008313   10.366277 O.2       1 AMINO      -0.125601 
     36 O36         5.048149   12.821505    8.215966 O.2       1 AMINO      -0.125601 
     37 N37         6.609982   11.004082    8.917374 N.am      1 AMINO      -0.146809 
     38 C38         6.618516    8.841881    8.301798 C.2       1 AMINO       0.044893 
     39 C39         6.076289   10.055439    8.091597 C.2       1 AMINO       0.041566 
     40 C40        14.491830   18.068193    8.455185 C.3       2 ISOPROPYL   -0.060022 
     41 O41         8.972927   15.779845    2.127733 O.3       2 ISOPROPYL   -0.359832 
     42 H1         13.133314   15.560598    6.793410 H         2 ISOPROPYL    0.031407 
     43 H2         11.774056   14.711452    7.510121 H         2 ISOPROPYL    0.031407 
     44 H3         12.239180   16.654837    8.875690 H         2 ISOPROPYL    0.029641 
     45 H4         10.665897   16.789260    8.136562 H         2 ISOPROPYL    0.029641 
     46 H5         11.520674   18.123395    5.359129 H         2 ISOPROPYL    0.036131 
     47 H6         11.566986   19.802755    5.943284 H         2 ISOPROPYL    0.036131 
     48 H7         13.698970   19.730317    7.364779 H         2 ISOPROPYL    0.032343 
     49 H8         12.947439   15.629985    4.349512 H         2 ISOPROPYL    0.062108 
     50 H9         11.592483   15.760663    2.288027 H         2 ISOPROPYL    0.064328 
     51 H10         8.729547   17.194181    9.952684 H         2 ISOPROPYL    0.063214 
     52 H11         6.098117   14.695137    6.641161 H         2 ISOPROPYL    0.064735 
     53 H12         9.301656   18.404458    4.675316 H         2 ISOPROPYL    0.216929 
     54 H13         9.242368   13.468386    9.930895 H         2 ISOPROPYL    0.027834 
     55 H14         8.534055   14.490399   11.219583 H         2 ISOPROPYL    0.027834 
     56 H15        10.014696   15.016736   10.357781 H         2 ISOPROPYL    0.027834 
     57 H16         5.041951   19.083898    8.147859 H         2 ISOPROPYL    0.023804 
     58 H17         4.095420   17.629653    8.524363 H         2 ISOPROPYL    0.023804 
     59 H18         3.598412   18.725954    7.206803 H         2 ISOPROPYL    0.023804 
     60 H19         3.898325   15.686112    6.832423 H         2 ISOPROPYL    0.023804 
     61 H20         4.716781   15.831821    5.238945 H         2 ISOPROPYL    0.023804 
     62 H21         3.396255   16.917393    5.659713 H         2 ISOPROPYL    0.023804 
     63 H22         6.393871   19.146064    5.867019 H         2 ISOPROPYL    0.023804 
     64 H23         4.993023   18.655050    4.920550 H         2 ISOPROPYL    0.023804 
     65 H24         6.475033   17.665147    4.880540 H         2 ISOPROPYL    0.023804 
     66 H25         7.995301   15.550106    4.629683 H         2 ISOPROPYL    0.064328 
     67 H26         9.339423   15.474033    6.680822 H         2 ISOPROPYL    0.062108 
     68 H27        13.777622   18.804384    5.088155 H         2 ISOPROPYL    0.023322 
     69 H28        14.264464   17.211044    5.718900 H         2 ISOPROPYL    0.023322 
     70 H29        15.323387   18.611060    5.921673 H         2 ISOPROPYL    0.023322 
     71 H30         8.142485   10.809551   10.421198 H         1 AMINO       0.101890 
     72 H31         6.408254    7.891287    7.812942 H         1 AMINO       0.084323 
     73 H32         5.303562   10.256275    7.350266 H         1 AMINO       0.081836 
     74 H33        14.581565   16.974342    8.384433 H         2 ISOPROPYL    0.023322 
     75 H34        14.059059   18.330389    9.433151 H         2 ISOPROPYL    0.023322 
     76 H35        15.507976   18.491248    8.412829 H         2 ISOPROPYL    0.023322 
     77 H36         8.029853   15.766297    2.246533 H         2 ISOPROPYL    0.217313 
@<TRIPOS>BOND
     1    2    1 1    
     2    2    3 1    
     3    3    4 1    
     4    4    5 1    
     5    5    6 1    
     6    6    7 2    
     7    7    8 1    
     8    8    9 1    
     9    4    9 1    
    10   37   32 am   
    11    1   11 ar   
    12   11   12 ar   
    13    8   13 2    
    14    7   14 1    
    15   14   15 1    
    16   15   16 ar   
    17   16   17 ar   
    18   17   18 ar   
    19   18   19 ar   
    20   19   20 ar   
    21   15   20 ar   
    22    6   21 1    
    23   17   22 1    
    24   20   23 1    
    25   23   24 1    
    26   23   25 1    
    27   23   26 1    
    28   27   34 1    
    29   12   28 ar   
    30   28   29 ar   
    31   29   30 ar   
    32    1   30 ar   
    33   10   31 1    
    34   32   33 2    
    35    4   10 1    
    36   34   35 2    
    37   18   27 1    
    38   34   36 2    
    39   34   37 1    
    40   33   38 1    
    41   38   39 2    
    42   37   39 am   
    43   10   40 1    
    44   28   41 1    
    45    2   42 1    
    46    2   43 1    
    47    3   44 1    
    48    3   45 1    
    49    5   46 1    
    50    5   47 1    
    51   10   48 1    
    52   11   49 1    
    53   12   50 1    
    54   16   51 1    
    55   19   52 1    
    56   21   53 1    
    57   22   54 1    
    58   22   55 1    
    59   22   56 1    
    60   24   57 1    
    61   24   58 1    
    62   24   59 1    
    63   25   60 1    
    64   25   61 1    
    65   25   62 1    
    66   26   63 1    
    67   26   64 1    
    68   26   65 1    
    69   29   66 1    
    70   30   67 1    
    71   31   68 1    
    72   31   69 1    
    73   31   70 1    
    74   32   71 1    
    75   38   72 1    
    76   39   73 1    
    77   40   74 1    
    78   40   75 1    
    79   40   76 1    
    80   41   77 1    
@<TRIPOS>SUBSTRUCTURE
     1 AMINO      27 PERM              0 ****  ****    1  
     2 ISOPROPYL    10 PERM              0 ****  ****    1 ROOT 
@<TRIPOS>NORMAL
@<TRIPOS>FF_PBC
FORCE_FIELD_SETUP_FEATURE Force Field Setup information
v1.0  0 0.000000 0.000000 0.000000 0.000000 0.000000 0.000000 NONE 0 0 0 0 1 0 0 0 0 0 0 0 0
