#	Name:			B42
#	Creating user name:	ccollar
#	Creation time:		Mon Jan 17 12:54:44 2005

#	Modifying user name:	ccollar
#	Modification time:	Mon Jan 17 12:54:58 2005

@<TRIPOS>MOLECULE
B42
   79    82     2     1     0
SMALL
GASTEIGER


@<TRIPOS>ATOM
      1 C1         11.234383   15.787211    5.690085 C.ar      2 ISOPROPYL   -0.047108 
      2 C2         12.265132   15.837032    6.832666 C.3       2 ISOPROPYL   -0.025037 
      3 C3         11.962638   16.859887    7.977017 C.3       2 ISOPROPYL   -0.018536 
      4 C4         12.304873   18.377985    7.762517 C.3       2 ISOPROPYL    0.087645 
      5 C5         11.854228   18.882662    6.365186 C.3       2 ISOPROPYL    0.024946 
      6 C6         10.361967   18.744301    6.271943 C.2       2 ISOPROPYL    0.072142 
      7 C7          9.595133   18.949654    7.351790 C.2       2 ISOPROPYL    0.109797 
      8 C8         10.277035   19.292317    8.614926 C.2       2 ISOPROPYL    0.303213 
      9 O9         11.598135   19.124560    8.783433 O.3       2 ISOPROPYL   -0.303695 
     10 C1         13.803281   18.726846    8.097952 C.3       2 ISOPROPYL   -0.016541 
     11 C11         9.921775   15.374875    5.946281 C.ar      2 ISOPROPYL   -0.056142 
     12 C12         8.978265   15.315490    4.916311 C.ar      2 ISOPROPYL   -0.031682 
     13 O13         9.632775   19.760734    9.538661 O.2       2 ISOPROPYL   -0.258547 
     14 S14         7.802265   18.882011    7.344037 S.3       2 ISOPROPYL   -0.081047 
     15 C15         7.443958   17.216264    7.859822 C.ar      2 ISOPROPYL    0.017060 
     16 C16         8.150884   16.691886    8.947487 C.ar      2 ISOPROPYL   -0.042265 
     17 C17         8.097691   15.331639    9.255801 C.ar      2 ISOPROPYL   -0.017068 
     18 C18         7.298536   14.505724    8.466493 C.ar      2 ISOPROPYL    0.110427 
     19 C19         6.557986   15.048705    7.413936 C.ar      2 ISOPROPYL   -0.024329 
     20 C20         6.469618   16.435118    7.209829 C.ar      2 ISOPROPYL   -0.025729 
     21 O21         9.879108   18.439736    5.059229 O.3       2 ISOPROPYL   -0.362719 
     22 C22         8.885553   14.732451   10.425259 C.3       2 ISOPROPYL   -0.037158 
     23 C23         5.319464   17.035296    6.338320 C.3       2 ISOPROPYL   -0.011542 
     24 C24         4.544674   18.093911    7.182201 C.3       2 ISOPROPYL   -0.056008 
     25 C25         4.257165   15.961625    5.929226 C.3       2 ISOPROPYL   -0.056008 
     26 C26         5.842898   17.667577    5.013333 C.3       2 ISOPROPYL   -0.056008 
     27 O27         7.228980   13.142865    8.746546 O.3       1 AMINO      -0.194883 
     28 C28         9.326467   15.699163    3.616579 C.ar      2 ISOPROPYL    0.072598 
     29 C29        10.636739   16.103386    3.354719 C.ar      2 ISOPROPYL   -0.031682 
     30 C30        11.590542   16.118977    4.376293 C.ar      2 ISOPROPYL   -0.056142 
     31 O31         8.392954   15.685536    2.576215 O.3       2 ISOPROPYL   -0.359832 
     32 C2         14.118952   20.245039    7.936316 C.3       2 ISOPROPYL   -0.060022 
     33 C3         14.890751   17.908355    7.347384 C.3       2 ISOPROPYL   -0.060022 
     34 S34         5.847269   12.708139    9.162773 S.o2      1 AMINO       0.134110 
     35 O35         5.215519   12.155927    7.979754 O.2       1 AMINO      -0.140052 
     36 O36         6.015069   11.833601   10.306207 O.2       1 AMINO      -0.140052 
     37 C37         4.842995   14.077658    9.704295 C.ar      1 AMINO       0.205942 
     38 C38         3.477703   14.116022    9.408601 C.ar      1 AMINO      -0.015546 
     39 C39         2.724502   15.226948    9.797218 C.ar      1 AMINO      -0.056957 
     40 C40         3.350657   16.269659   10.485063 C.ar      1 AMINO      -0.043468 
     41 C41         4.711421   16.167309   10.787260 C.ar      1 AMINO       0.029821 
     42 N42         5.406135   15.068894   10.427639 N.ar      1 AMINO      -0.234797 
     43 H1         13.263404   15.970527    6.404545 H         2 ISOPROPYL    0.031407 
     44 H2         12.247108   14.824295    7.268808 H         2 ISOPROPYL    0.031407 
     45 H3         12.507839   16.538045    8.879011 H         2 ISOPROPYL    0.029641 
     46 H4         10.896607   16.751128    8.216364 H         2 ISOPROPYL    0.029641 
     47 H5         12.376176   18.347159    5.564865 H         2 ISOPROPYL    0.036131 
     48 H6         12.044911   19.956055    6.233625 H         2 ISOPROPYL    0.036131 
     49 H7         13.942135   18.508786    9.172817 H         2 ISOPROPYL    0.032343 
     50 H8          9.631290   15.085428    6.948954 H         2 ISOPROPYL    0.062108 
     51 H9          7.975817   14.966138    5.128240 H         2 ISOPROPYL    0.064328 
     52 H10         8.748515   17.347407    9.566856 H         2 ISOPROPYL    0.063214 
     53 H11         6.055546   14.341837    6.769975 H         2 ISOPROPYL    0.064734 
     54 H12         8.937709   18.338355    4.986148 H         2 ISOPROPYL    0.216929 
     55 H13         9.463976   15.494934   10.967956 H         2 ISOPROPYL    0.027834 
     56 H14         9.580026   13.971470   10.038814 H         2 ISOPROPYL    0.027834 
     57 H15         8.183076   14.255987   11.125815 H         2 ISOPROPYL    0.027834 
     58 H16         5.166072   18.947352    7.476928 H         2 ISOPROPYL    0.023804 
     59 H17         4.159690   17.625475    8.100528 H         2 ISOPROPYL    0.023804 
     60 H18         3.691700   18.501265    6.618037 H         2 ISOPROPYL    0.023804 
     61 H19         3.886329   15.417197    6.811558 H         2 ISOPROPYL    0.023804 
     62 H20         4.668446   15.244301    5.202648 H         2 ISOPROPYL    0.023804 
     63 H21         3.384549   16.426931    5.444984 H         2 ISOPROPYL    0.023804 
     64 H22         5.005083   17.909615    4.341511 H         2 ISOPROPYL    0.023804 
     65 H23         6.502692   16.958058    4.494396 H         2 ISOPROPYL    0.023804 
     66 H24         6.391097   18.602921    5.168055 H         2 ISOPROPYL    0.023804 
     67 H25        10.909327   16.403671    2.348597 H         2 ISOPROPYL    0.064328 
     68 H26        12.612773   16.389082    4.132019 H         2 ISOPROPYL    0.062108 
     69 H27         7.594467   15.209228    2.773542 H         2 ISOPROPYL    0.217313 
     70 H28        13.335582   20.870764    8.390598 H         2 ISOPROPYL    0.023322 
     71 H29        14.221463   20.517558    6.875435 H         2 ISOPROPYL    0.023322 
     72 H30        15.071148   20.492796    8.432253 H         2 ISOPROPYL    0.023322 
     73 H31        14.732225   17.946439    6.259813 H         2 ISOPROPYL    0.023322 
     74 H32        14.905390   16.863621    7.690259 H         2 ISOPROPYL    0.023322 
     75 H33        15.890968   18.318542    7.557332 H         2 ISOPROPYL    0.023322 
     76 H34         3.009799   13.293005    8.879475 H         1 AMINO       0.065303 
     77 H35         1.664920   15.280056    9.566039 H         1 AMINO       0.061908 
     78 H36         2.787345   17.149092   10.781427 H         1 AMINO       0.063267 
     79 H37         5.219111   16.969080   11.313367 H         1 AMINO       0.083004 
@<TRIPOS>BOND
     1    2    1 1    
     2    3    2 1    
     3    4    3 1    
     4    4    5 1    
     5    5    6 1    
     6    6    7 2    
     7    8    7 1    
     8    9    8 1    
     9    4    9 1    
    10   10   32 1    
    11    1   11 ar   
    12   11   12 ar   
    13    8   13 2    
    14    7   14 1    
    15   14   15 1    
    16   15   16 ar   
    17   16   17 ar   
    18   17   18 ar   
    19   19   18 ar   
    20   20   19 ar   
    21   15   20 ar   
    22    6   21 1    
    23   17   22 1    
    24   20   23 1    
    25   23   24 1    
    26   23   25 1    
    27   23   26 1    
    28   27   34 1    
    29   12   28 ar   
    30   29   28 ar   
    31   30   29 ar   
    32    1   30 ar   
    33   28   31 1    
    34   10   33 1    
    35   10    4 1    
    36   34   35 2    
    37   18   27 1    
    38   34   36 2    
    39   34   37 1    
    40   37   38 ar   
    41   38   39 ar   
    42   39   40 ar   
    43   40   41 ar   
    44   41   42 ar   
    45   37   42 ar   
    46    2   43 1    
    47    2   44 1    
    48    3   45 1    
    49    3   46 1    
    50    5   47 1    
    51    5   48 1    
    52   10   49 1    
    53   11   50 1    
    54   12   51 1    
    55   16   52 1    
    56   19   53 1    
    57   21   54 1    
    58   22   55 1    
    59   22   56 1    
    60   22   57 1    
    61   24   58 1    
    62   24   59 1    
    63   24   60 1    
    64   25   61 1    
    65   25   62 1    
    66   25   63 1    
    67   26   64 1    
    68   26   65 1    
    69   26   66 1    
    70   29   67 1    
    71   30   68 1    
    72   31   69 1    
    73   32   70 1    
    74   32   71 1    
    75   32   72 1    
    76   33   73 1    
    77   33   74 1    
    78   33   75 1    
    79   38   76 1    
    80   39   77 1    
    81   40   78 1    
    82   41   79 1    
@<TRIPOS>SUBSTRUCTURE
     1 AMINO      27 PERM              0 ****  ****    1  
     2 ISOPROPYL    10 PERM              0 ****  ****    1 ROOT 
@<TRIPOS>NORMAL
@<TRIPOS>FF_PBC
FORCE_FIELD_SETUP_FEATURE Force Field Setup information
v1.0  0 0.000000 0.000000 0.000000 0.000000 0.000000 0.000000 NONE 0 0 0 0 1 0 0 0 0 0 0 0 0
