#	Name:			B43
#	Creating user name:	ccollar
#	Creation time:		Mon Jan 17 12:55:22 2005

#	Modifying user name:	ccollar
#	Modification time:	Mon Jan 17 12:55:50 2005

@<TRIPOS>MOLECULE
B43
   79    82     2     1     0
SMALL
GASTEIGER


@<TRIPOS>ATOM
      1 C1         11.237884   15.789346    5.689825 C.ar      2 ISOPROPYL   -0.047108 
      2 C2         12.279304   15.851266    6.822112 C.3       2 ISOPROPYL   -0.025037 
      3 C3         11.969661   16.864373    7.973326 C.3       2 ISOPROPYL   -0.018536 
      4 C4         12.309534   18.384251    7.769837 C.3       2 ISOPROPYL    0.087645 
      5 C5         11.862382   18.894983    6.373792 C.3       2 ISOPROPYL    0.024946 
      6 C6         10.370587   18.754763    6.275924 C.2       2 ISOPROPYL    0.072142 
      7 C7          9.599698   18.955175    7.353933 C.2       2 ISOPROPYL    0.109797 
      8 C8         10.277597   19.291440    8.620955 C.2       2 ISOPROPYL    0.303213 
      9 O9         11.598254   19.123414    8.792893 O.3       2 ISOPROPYL   -0.303695 
     10 C1         13.806199   18.733776    8.112269 C.3       2 ISOPROPYL   -0.016541 
     11 C11         9.936073   15.351625    5.958406 C.ar      2 ISOPROPYL   -0.056142 
     12 C12         8.980918   15.282127    4.939917 C.ar      2 ISOPROPYL   -0.031682 
     13 O13         9.630642   19.755035    9.545189 O.2       2 ISOPROPYL   -0.258547 
     14 S14         7.806317   18.889116    7.340310 S.3       2 ISOPROPYL   -0.081047 
     15 C15         7.442892   17.221879    7.847726 C.ar      2 ISOPROPYL    0.017060 
     16 C16         8.148476   16.693926    8.934452 C.ar      2 ISOPROPYL   -0.042265 
     17 C17         8.121575   15.329468    9.225198 C.ar      2 ISOPROPYL   -0.017068 
     18 C18         7.321416   14.506178    8.432177 C.ar      2 ISOPROPYL    0.110375 
     19 C19         6.534721   15.059443    7.419677 C.ar      2 ISOPROPYL   -0.024329 
     20 C20         6.467627   16.444596    7.193458 C.ar      2 ISOPROPYL   -0.025729 
     21 O21         9.892700   18.453674    5.060512 O.3       2 ISOPROPYL   -0.362719 
     22 C22         8.961085   14.767844   10.379173 C.3       2 ISOPROPYL   -0.037158 
     23 C23         5.342930   17.051107    6.290790 C.3       2 ISOPROPYL   -0.011542 
     24 C24         4.547879   18.111015    7.113887 C.3       2 ISOPROPYL   -0.056008 
     25 C25         4.288891   15.984848    5.842606 C.3       2 ISOPROPYL   -0.056008 
     26 C26         5.904926   17.685645    4.981929 C.3       2 ISOPROPYL   -0.056008 
     27 O27         7.306001   13.131109    8.647628 O.3       1 AMINO      -0.196071 
     28 C28         9.308012   15.676757    3.637959 C.ar      2 ISOPROPYL    0.072598 
     29 C29        10.607682   16.106115    3.363354 C.ar      2 ISOPROPYL   -0.031682 
     30 C30        11.572886   16.134432    4.373947 C.ar      2 ISOPROPYL   -0.056142 
     31 O31         8.363789   15.649241    2.607597 O.3       2 ISOPROPYL   -0.359832 
     32 C2         14.119281   20.253662    7.961746 C.3       2 ISOPROPYL   -0.060022 
     33 C3         14.897782   17.922584    7.359773 C.3       2 ISOPROPYL   -0.060022 
     34 S34         6.129200   12.721503    9.486458 S.o2      1 AMINO       0.118185 
     35 O35         6.168206   13.449308   10.740631 O.2       1 AMINO      -0.141511 
     36 O36         4.932764   12.777807    8.668974 O.2       1 AMINO      -0.141511 
     37 C37         6.517413   11.022023    9.811534 C.ar      1 AMINO       0.135450 
     38 C38         7.344413   10.680049   10.884482 C.ar      1 AMINO      -0.031449 
     39 C39         7.654682    9.336482   11.110715 C.ar      1 AMINO      -0.041714 
     40 C40         7.136305    8.362724   10.252120 C.ar      1 AMINO       0.027675 
     41 N41         6.350043    8.718444    9.214857 N.ar      1 AMINO      -0.261289 
     42 C42         6.039382   10.009802    8.974719 C.ar      1 AMINO       0.054846 
     43 H1         13.270669   16.003584    6.384254 H         2 ISOPROPYL    0.031407 
     44 H2         12.282332   14.836375    7.253534 H         2 ISOPROPYL    0.031407 
     45 H3         12.511957   16.538135    8.875495 H         2 ISOPROPYL    0.029641 
     46 H4         10.902768   16.752925    8.207561 H         2 ISOPROPYL    0.029641 
     47 H5         12.386855   18.363490    5.572322 H         2 ISOPROPYL    0.036131 
     48 H6         12.052300   19.969182    6.247775 H         2 ISOPROPYL    0.036131 
     49 H7         13.942039   18.508570    9.186045 H         2 ISOPROPYL    0.032343 
     50 H8          9.663777   15.049868    6.962358 H         2 ISOPROPYL    0.062108 
     51 H9          7.986364   14.916357    5.162715 H         2 ISOPROPYL    0.064328 
     52 H10         8.730172   17.349041    9.570065 H         2 ISOPROPYL    0.063214 
     53 H11         5.982878   14.350870    6.819636 H         2 ISOPROPYL    0.064734 
     54 H12         8.952111   18.348450    4.984738 H         2 ISOPROPYL    0.216929 
     55 H13         8.435658   14.956290   11.327005 H         2 ISOPROPYL    0.027834 
     56 H14         9.942861   15.264350   10.408245 H         2 ISOPROPYL    0.027834 
     57 H15         9.126981   13.685700   10.271647 H         2 ISOPROPYL    0.027834 
     58 H16         5.164999   18.960402    7.429223 H         2 ISOPROPYL    0.023804 
     59 H17         4.132962   17.642543    8.019811 H         2 ISOPROPYL    0.023804 
     60 H18         3.714551   18.523559    6.524552 H         2 ISOPROPYL    0.023804 
     61 H19         3.872004   15.450365    6.710700 H         2 ISOPROPYL    0.023804 
     62 H20         4.727119   15.259517    5.139804 H         2 ISOPROPYL    0.023804 
     63 H21         3.442494   16.454800    5.317823 H         2 ISOPROPYL    0.023804 
     64 H22         5.091197   17.911801    4.275877 H         2 ISOPROPYL    0.023804 
     65 H23         6.594933   16.983849    4.492922 H         2 ISOPROPYL    0.023804 
     66 H24         6.429792   18.631856    5.149802 H         2 ISOPROPYL    0.023804 
     67 H25        10.863200   16.416032    2.355665 H         2 ISOPROPYL    0.064328 
     68 H26        12.587040   16.424436    4.119305 H         2 ISOPROPYL    0.062108 
     69 H27         7.577588   15.155279    2.810939 H         2 ISOPROPYL    0.217313 
     70 H28        13.333387   20.874761    8.418010 H         2 ISOPROPYL    0.023322 
     71 H29        14.224115   20.533644    6.903046 H         2 ISOPROPYL    0.023322 
     72 H30        15.069598   20.500010    8.461962 H         2 ISOPROPYL    0.023322 
     73 H31        14.745713   17.972234    6.271733 H         2 ISOPROPYL    0.023322 
     74 H32        14.910012   16.874255    7.691688 H         2 ISOPROPYL    0.023322 
     75 H33        15.896795   18.330422    7.579855 H         2 ISOPROPYL    0.023322 
     76 H34         7.741953   11.452320   11.534642 H         1 AMINO       0.063823 
     77 H35         8.290959    9.051990   11.943117 H         1 AMINO       0.063322 
     78 H36         7.362681    7.313757   10.413112 H         1 AMINO       0.082935 
     79 H37         5.414572   10.256566    8.123977 H         1 AMINO       0.084961 
@<TRIPOS>BOND
     1    2    1 1    
     2    3    2 1    
     3    4    3 1    
     4    4    5 1    
     5    5    6 1    
     6    6    7 2    
     7    8    7 1    
     8    9    8 1    
     9    4    9 1    
    10   10   32 1    
    11    1   11 ar   
    12   11   12 ar   
    13    8   13 2    
    14    7   14 1    
    15   14   15 1    
    16   15   16 ar   
    17   16   17 ar   
    18   17   18 ar   
    19   19   18 ar   
    20   20   19 ar   
    21   15   20 ar   
    22    6   21 1    
    23   17   22 1    
    24   20   23 1    
    25   23   24 1    
    26   23   25 1    
    27   23   26 1    
    28   27   34 1    
    29   12   28 ar   
    30   29   28 ar   
    31   30   29 ar   
    32    1   30 ar   
    33   28   31 1    
    34   10   33 1    
    35   10    4 1    
    36   34   35 2    
    37   18   27 1    
    38   34   36 2    
    39   34   37 1    
    40   37   38 ar   
    41   38   39 ar   
    42   39   40 ar   
    43   40   41 ar   
    44   41   42 ar   
    45   37   42 ar   
    46    2   43 1    
    47    2   44 1    
    48    3   45 1    
    49    3   46 1    
    50    5   47 1    
    51    5   48 1    
    52   10   49 1    
    53   11   50 1    
    54   12   51 1    
    55   16   52 1    
    56   19   53 1    
    57   21   54 1    
    58   22   55 1    
    59   22   56 1    
    60   22   57 1    
    61   24   58 1    
    62   24   59 1    
    63   24   60 1    
    64   25   61 1    
    65   25   62 1    
    66   25   63 1    
    67   26   64 1    
    68   26   65 1    
    69   26   66 1    
    70   29   67 1    
    71   30   68 1    
    72   31   69 1    
    73   32   70 1    
    74   32   71 1    
    75   32   72 1    
    76   33   73 1    
    77   33   74 1    
    78   33   75 1    
    79   38   76 1    
    80   39   77 1    
    81   40   78 1    
    82   42   79 1    
@<TRIPOS>SUBSTRUCTURE
     1 AMINO      27 PERM              0 ****  ****    1  
     2 ISOPROPYL    10 PERM              0 ****  ****    1 ROOT 
@<TRIPOS>NORMAL
@<TRIPOS>FF_PBC
FORCE_FIELD_SETUP_FEATURE Force Field Setup information
v1.0  0 0.000000 0.000000 0.000000 0.000000 0.000000 0.000000 NONE 0 0 0 0 1 0 0 0 0 0 0 0 0
