#	Name:			B44
#	Creating user name:	ccollar
#	Creation time:		Mon Jan 17 12:56:19 2005

#	Modifying user name:	ccollar
#	Modification time:	Mon Jan 17 12:56:38 2005

@<TRIPOS>MOLECULE
B44
   74    77     2     1     0
SMALL
GASTEIGER


@<TRIPOS>ATOM
      1 C1         11.247885   15.680948    5.677698 C.ar      2 ISOPROPYL   -0.047108 
      2 C2         12.171522   15.712059    6.908056 C.3       2 ISOPROPYL   -0.025055 
      3 C3         11.771461   16.790296    7.960572 C.3       2 ISOPROPYL   -0.019042 
      4 C4         12.159969   18.276661    7.659231 C.3       2 ISOPROPYL    0.082569 
      5 C5         11.633797   18.803575    6.300432 C.3       2 ISOPROPYL    0.024442 
      6 C6         10.137471   18.743157    6.342489 C.2       2 ISOPROPYL    0.072124 
      7 C7          9.482718   18.996829    7.484680 C.2       2 ISOPROPYL    0.109797 
      8 C8         10.295638   19.315180    8.679229 C.2       2 ISOPROPYL    0.303197 
      9 O9         11.622867   19.096325    8.721593 O.3       2 ISOPROPYL   -0.304231 
     10 C1         13.700533   18.475550    7.721481 C.3       2 ISOPROPYL   -0.034831 
     11 C11         9.888913   15.385771    5.833497 C.ar      2 ISOPROPYL   -0.056142 
     12 C12         9.014229   15.434954    4.744547 C.ar      2 ISOPROPYL   -0.031682 
     13 O13         9.758262   19.807022    9.657400 O.2       2 ISOPROPYL   -0.258547 
     14 S14         7.694062   19.002012    7.633678 S.3       2 ISOPROPYL   -0.081047 
     15 C15         7.384477   17.300238    8.046408 C.ar      2 ISOPROPYL    0.017060 
     16 C16         8.127148   16.729088    9.084840 C.ar      2 ISOPROPYL   -0.042265 
     17 C17         8.165970   15.345525    9.266252 C.ar      2 ISOPROPYL   -0.017068 
     18 C18         7.412851   14.548106    8.402698 C.ar      2 ISOPROPYL    0.110374 
     19 C19         6.596716   15.139457    7.435710 C.ar      2 ISOPROPYL   -0.024329 
     20 C20         6.425053   16.530931    7.362258 C.ar      2 ISOPROPYL   -0.025729 
     21 O21         9.538841   18.441897    5.182087 O.3       2 ISOPROPYL   -0.362719 
     22 C22         9.025383   14.729868   10.377021 C.3       2 ISOPROPYL   -0.037158 
     23 C23         5.210938   17.142817    6.593227 C.3       2 ISOPROPYL   -0.011542 
     24 C24         4.448670   18.119204    7.541404 C.3       2 ISOPROPYL   -0.056008 
     25 C25         4.167341   16.056549    6.170167 C.3       2 ISOPROPYL   -0.056008 
     26 C26         5.644374   17.876533    5.289707 C.3       2 ISOPROPYL   -0.056008 
     27 O27         7.475846   13.161633    8.501651 O.3       1 AMINO      -0.196110 
     28 C28         9.498357   15.757166    3.471471 C.ar      2 ISOPROPYL    0.072598 
     29 C29        10.865476   15.986450    3.300029 C.ar      2 ISOPROPYL   -0.031682 
     30 C30        11.738681   15.929556    4.390371 C.ar      2 ISOPROPYL   -0.056142 
     31 O31         8.645451   15.850525    2.367507 O.3       2 ISOPROPYL   -0.359832 
     32 H1         13.226047   15.821454    6.618358 H         2 ISOPROPYL    0.031407 
     33 H2         12.070340   14.716776    7.371847 H         2 ISOPROPYL    0.031407 
     34 S34         6.299197   12.619255    9.261133 S.o2      1 AMINO       0.116731 
     35 O35         6.256708   13.223592   10.579167 O.2       1 AMINO      -0.141559 
     36 O36         5.125445   12.651007    8.409922 O.2       1 AMINO      -0.141559 
     37 C37         6.875335   10.947107    9.408625 C.ar      1 AMINO       0.117468 
     38 C38         7.728422   10.595485   10.458819 C.ar      1 AMINO      -0.034379 
     39 C39         8.201118    9.284571   10.570518 C.ar      1 AMINO      -0.059879 
     40 C40         7.827910    8.325099    9.624715 C.ar      1 AMINO      -0.061646 
     41 C41         6.986667    8.678322    8.565455 C.ar      1 AMINO      -0.059879 
     42 C42         6.515424    9.989948    8.455301 C.ar      1 AMINO      -0.034379 
     43 H3         12.253038   16.525908    8.916308 H         2 ISOPROPYL    0.029623 
     44 H4         10.691465   16.713988    8.134684 H         2 ISOPROPYL    0.029623 
     45 H5         12.050891   18.233088    5.463168 H         2 ISOPROPYL    0.036113 
     46 H6         11.917424   19.858043    6.161119 H         2 ISOPROPYL    0.036113 
     47 H7         13.938810   19.548002    7.650507 H         2 ISOPROPYL    0.025757 
     48 H8         14.211718   17.959167    6.896595 H         2 ISOPROPYL    0.025757 
     49 H9         14.102655   18.104108    8.676185 H         2 ISOPROPYL    0.025757 
     50 H10         9.505280   15.108408    6.806652 H         2 ISOPROPYL    0.062108 
     51 H11         7.962484   15.219156    4.894891 H         2 ISOPROPYL    0.064328 
     52 H12         8.686137   17.367586    9.759195 H         2 ISOPROPYL    0.063214 
     53 H13         6.106132   14.464660    6.749109 H         2 ISOPROPYL    0.064734 
     54 H14         8.592090   18.387941    5.192783 H         2 ISOPROPYL    0.216929 
     55 H15         8.452978   14.737213   11.316227 H         2 ISOPROPYL    0.027834 
     56 H16         9.948381   15.313196   10.514782 H         2 ISOPROPYL    0.027834 
     57 H17         9.307643   13.693847   10.137641 H         2 ISOPROPYL    0.027834 
     58 H18         5.057085   18.976521    7.852241 H         2 ISOPROPYL    0.023804 
     59 H19         4.132104   17.583012    8.449510 H         2 ISOPROPYL    0.023804 
     60 H20         3.552103   18.527494    7.050111 H         2 ISOPROPYL    0.023804 
     61 H21         3.875618   15.435500    7.031778 H         2 ISOPROPYL    0.023804 
     62 H22         4.558435   15.409593    5.370214 H         2 ISOPROPYL    0.023804 
     63 H23         3.249353   16.517511    5.773568 H         2 ISOPROPYL    0.023804 
     64 H24         4.764807   18.138634    4.681723 H         2 ISOPROPYL    0.023804 
     65 H25         6.293339   17.221551    4.689632 H         2 ISOPROPYL    0.023804 
     66 H26         6.174419   18.814823    5.487604 H         2 ISOPROPYL    0.023804 
     67 H27        11.245511   16.210816    2.309042 H         2 ISOPROPYL    0.064328 
     68 H28        12.800654   16.084440    4.228489 H         2 ISOPROPYL    0.062108 
     69 H29         7.724881   15.728839    2.569924 H         2 ISOPROPYL    0.217313 
     70 H30         8.024053   11.342967   11.187513 H         1 AMINO       0.063729 
     71 H31         8.857992    9.011921   11.391138 H         1 AMINO       0.061815 
     72 H32         8.191899    7.305740    9.712462 H         1 AMINO       0.061759 
     73 H33         6.699756    7.934288    7.828314 H         1 AMINO       0.061815 
     74 H34         5.869944   10.266148    7.628286 H         1 AMINO       0.063729 
@<TRIPOS>BOND
     1    2    1 1    
     2    2    3 1    
     3    3    4 1    
     4    4    5 1    
     5    5    6 1    
     6    6    7 2    
     7    7    8 1    
     8    8    9 1    
     9    4    9 1    
    10    2   32 1    
    11    1   11 ar   
    12   11   12 ar   
    13    8   13 2    
    14    7   14 1    
    15   14   15 1    
    16   15   16 ar   
    17   16   17 ar   
    18   17   18 ar   
    19   18   19 ar   
    20   19   20 ar   
    21   15   20 ar   
    22    6   21 1    
    23   17   22 1    
    24   20   23 1    
    25   23   24 1    
    26   23   25 1    
    27   23   26 1    
    28   27   34 1    
    29   12   28 ar   
    30   28   29 ar   
    31   29   30 ar   
    32    1   30 ar   
    33   28   31 1    
    34    2   33 1    
    35    4   10 1    
    36   34   35 2    
    37   18   27 1    
    38   34   36 2    
    39   34   37 1    
    40   37   38 ar   
    41   38   39 ar   
    42   39   40 ar   
    43   40   41 ar   
    44   41   42 ar   
    45   37   42 ar   
    46    3   43 1    
    47    3   44 1    
    48    5   45 1    
    49    5   46 1    
    50   10   47 1    
    51   10   48 1    
    52   10   49 1    
    53   11   50 1    
    54   12   51 1    
    55   16   52 1    
    56   19   53 1    
    57   21   54 1    
    58   22   55 1    
    59   22   56 1    
    60   22   57 1    
    61   24   58 1    
    62   24   59 1    
    63   24   60 1    
    64   25   61 1    
    65   25   62 1    
    66   25   63 1    
    67   26   64 1    
    68   26   65 1    
    69   26   66 1    
    70   29   67 1    
    71   30   68 1    
    72   31   69 1    
    73   38   70 1    
    74   39   71 1    
    75   40   72 1    
    76   41   73 1    
    77   42   74 1    
@<TRIPOS>SUBSTRUCTURE
     1 AMINO      27 PERM              0 ****  ****    1  
     2 ISOPROPYL    10 PERM              0 ****  ****    1 ROOT 
@<TRIPOS>NORMAL
@<TRIPOS>FF_PBC
FORCE_FIELD_SETUP_FEATURE Force Field Setup information
v1.0  0 0.000000 0.000000 0.000000 0.000000 0.000000 0.000000 NONE 0 0 0 0 1 0 0 0 0 0 0 0 0
