#	Name:			B45
#	Creating user name:	ccollar
#	Creation time:		Mon Jan 17 12:56:59 2005

#	Modifying user name:	ccollar
#	Modification time:	Mon Jan 17 12:57:10 2005

@<TRIPOS>MOLECULE
B45
   71    74     2     1     0
SMALL
GASTEIGER


@<TRIPOS>ATOM
      1 C1         11.247340   15.677754    5.676796 C.ar      2 ISOPROPYL   -0.047108 
      2 C2         12.164608   15.705921    6.911734 C.3       2 ISOPROPYL   -0.025055 
      3 C3         11.766118   16.788864    7.959786 C.3       2 ISOPROPYL   -0.019042 
      4 C4         12.154984   18.273943    7.652640 C.3       2 ISOPROPYL    0.082569 
      5 C5         11.622156   18.799442    6.295795 C.3       2 ISOPROPYL    0.024442 
      6 C6         10.125977   18.742919    6.345850 C.2       2 ISOPROPYL    0.072124 
      7 C7          9.477674   18.997792    7.491437 C.2       2 ISOPROPYL    0.109797 
      8 C8         10.297162   19.315030    8.681776 C.2       2 ISOPROPYL    0.303197 
      9 O9         11.624603   19.095779    8.716722 O.3       2 ISOPROPYL   -0.304231 
     10 C1         13.696208   18.470411    7.705719 C.3       2 ISOPROPYL   -0.034831 
     11 C11        11.747830   15.916563    4.391358 C.ar      2 ISOPROPYL   -0.056142 
     12 C12        10.881472   15.975635    3.295634 C.ar      2 ISOPROPYL   -0.031682 
     13 O13         9.765116   19.806224    9.663156 O.2       2 ISOPROPYL   -0.258547 
     14 S14         7.689704   19.005386    7.649803 S.3       2 ISOPROPYL   -0.081047 
     15 C15         7.381806   17.302210    8.057645 C.ar      2 ISOPROPYL    0.017060 
     16 C16         8.126058   16.728055    9.093208 C.ar      2 ISOPROPYL   -0.042264 
     17 C17         8.165297   15.344013    9.270757 C.ar      2 ISOPROPYL   -0.017023 
     18 C18         7.413115   14.548573    8.404219 C.ar      2 ISOPROPYL    0.111714 
     19 C19         6.597823   15.142885    7.438167 C.ar      2 ISOPROPYL   -0.024284 
     20 C20         6.422220   16.534195    7.372470 C.ar      2 ISOPROPYL   -0.025728 
     21 O21         9.520691   18.443539    5.188411 O.3       2 ISOPROPYL   -0.362719 
     22 C22         9.025845   14.730470   10.381860 C.3       2 ISOPROPYL   -0.037157 
     23 C23         5.204040   17.147248    6.610902 C.3       2 ISOPROPYL   -0.011542 
     24 C24         4.443378   18.117391    7.566763 C.3       2 ISOPROPYL   -0.056008 
     25 C25         4.161632   16.060394    6.186550 C.3       2 ISOPROPYL   -0.056008 
     26 C26         5.630373   17.888694    5.309420 C.3       2 ISOPROPYL   -0.056008 
     27 O27         7.476078   13.161673    8.498303 O.3       1 AMINO      -0.183743 
     28 C28         9.511237   15.760296    3.460510 C.ar      2 ISOPROPYL    0.072598 
     29 C29         9.016631   15.448860    4.732213 C.ar      2 ISOPROPYL   -0.031682 
     30 C30         9.884828   15.395978    5.826235 C.ar      2 ISOPROPYL   -0.056142 
     31 H1         13.221216   15.808511    6.627271 H         2 ISOPROPYL    0.031407 
     32 C32         7.590863   10.530384   10.307225 C.2       1 AMINO       0.110283 
     33 N33         7.698707    9.289934   10.150646 N.2       1 AMINO      -0.244918 
     34 S34         6.311654   12.614123    9.271864 S.o2      1 AMINO       0.178103 
     35 O35         6.303904   13.210698   10.593610 O.2       1 AMINO      -0.125601 
     36 O36         5.122992   12.695109    8.445442 O.2       1 AMINO      -0.125601 
     37 N37         6.723366   11.053105    9.427873 N.am      1 AMINO      -0.146809 
     38 C38         6.861357    8.836858    9.076311 C.2       1 AMINO       0.044893 
     39 C39         6.295121    9.991988    8.681409 C.2       1 AMINO       0.041566 
     40 H2         12.055381   14.712304    7.377137 H         2 ISOPROPYL    0.031407 
     41 O41         8.665437   15.856500    2.351339 O.3       2 ISOPROPYL   -0.359832 
     42 H3         12.248736   16.527527    8.915856 H         2 ISOPROPYL    0.029623 
     43 H4         10.686300   16.714030    8.135312 H         2 ISOPROPYL    0.029623 
     44 H5         12.032874   18.226449    5.457095 H         2 ISOPROPYL    0.036113 
     45 H6         11.907458   19.852893    6.152585 H         2 ISOPROPYL    0.036113 
     46 H7         14.103525   18.098277    8.657970 H         2 ISOPROPYL    0.025757 
     47 H8         13.935768   19.542489    7.633134 H         2 ISOPROPYL    0.025757 
     48 H9         14.201376   17.953122    6.877618 H         2 ISOPROPYL    0.025757 
     49 H10        12.811860   16.062313    4.235067 H         2 ISOPROPYL    0.062108 
     50 H11        11.269188   16.190964    2.305569 H         2 ISOPROPYL    0.064328 
     51 H12         8.686434   17.364468    9.768523 H         2 ISOPROPYL    0.063214 
     52 H13         6.110665   14.471581    6.745659 H         2 ISOPROPYL    0.064735 
     53 H14         8.573864   18.393585    5.203693 H         2 ISOPROPYL    0.216929 
     54 H15         8.476031   14.789759   11.332638 H         2 ISOPROPYL    0.027834 
     55 H16         9.971368   15.285102   10.479248 H         2 ISOPROPYL    0.027834 
     56 H17         9.266544   13.677668   10.172714 H         2 ISOPROPYL    0.027834 
     57 H18         4.129695   17.575845    8.472684 H         2 ISOPROPYL    0.023804 
     58 H19         3.545124   18.527592    7.080089 H         2 ISOPROPYL    0.023804 
     59 H20         5.052180   18.973406    7.880694 H         2 ISOPROPYL    0.023804 
     60 H21         4.551031   15.418928    5.381361 H         2 ISOPROPYL    0.023804 
     61 H22         3.240626   16.521080    5.796580 H         2 ISOPROPYL    0.023804 
     62 H23         3.875451   15.433679    7.045885 H         2 ISOPROPYL    0.023804 
     63 H24         6.158384   18.827591    5.510116 H         2 ISOPROPYL    0.023804 
     64 H25         4.747697   18.151285    4.706161 H         2 ISOPROPYL    0.023804 
     65 H26         6.278751   17.238551    4.703497 H         2 ISOPROPYL    0.023804 
     66 H27         7.961766   15.244369    4.877793 H         2 ISOPROPYL    0.064328 
     67 H28         9.493089   15.126500    6.798195 H         2 ISOPROPYL    0.062108 
     68 H29         8.132804   11.103856   11.058690 H         1 AMINO       0.101890 
     69 H30         6.726863    7.827480    8.689074 H         1 AMINO       0.084323 
     70 H31         5.580269   10.070710    7.863002 H         1 AMINO       0.081836 
     71 H32         7.741381   15.759249    2.551453 H         2 ISOPROPYL    0.217313 
@<TRIPOS>BOND
     1    2    1 1    
     2    2    3 1    
     3    3    4 1    
     4    4    5 1    
     5    5    6 1    
     6    6    7 2    
     7    7    8 1    
     8    8    9 1    
     9    4    9 1    
    10   37   32 am   
    11    1   11 ar   
    12   11   12 ar   
    13    8   13 2    
    14    7   14 1    
    15   14   15 1    
    16   15   16 ar   
    17   16   17 ar   
    18   17   18 ar   
    19   18   19 ar   
    20   19   20 ar   
    21   15   20 ar   
    22    6   21 1    
    23   17   22 1    
    24   20   23 1    
    25   23   24 1    
    26   23   25 1    
    27   23   26 1    
    28   27   34 1    
    29   12   28 ar   
    30   28   29 ar   
    31   29   30 ar   
    32    1   30 ar   
    33    2   31 1    
    34   32   33 2    
    35    4   10 1    
    36   34   35 2    
    37   18   27 1    
    38   34   36 2    
    39   34   37 1    
    40   33   38 1    
    41   38   39 2    
    42   37   39 am   
    43    2   40 1    
    44   28   41 1    
    45    3   42 1    
    46    3   43 1    
    47    5   44 1    
    48    5   45 1    
    49   10   46 1    
    50   10   47 1    
    51   10   48 1    
    52   11   49 1    
    53   12   50 1    
    54   16   51 1    
    55   19   52 1    
    56   21   53 1    
    57   22   54 1    
    58   22   55 1    
    59   22   56 1    
    60   24   57 1    
    61   24   58 1    
    62   24   59 1    
    63   25   60 1    
    64   25   61 1    
    65   25   62 1    
    66   26   63 1    
    67   26   64 1    
    68   26   65 1    
    69   29   66 1    
    70   30   67 1    
    71   32   68 1    
    72   38   69 1    
    73   39   70 1    
    74   41   71 1    
@<TRIPOS>SUBSTRUCTURE
     1 AMINO      27 PERM              0 ****  ****    1  
     2 ISOPROPYL    10 PERM              0 ****  ****    1 ROOT 
@<TRIPOS>NORMAL
@<TRIPOS>FF_PBC
FORCE_FIELD_SETUP_FEATURE Force Field Setup information
v1.0  0 0.000000 0.000000 0.000000 0.000000 0.000000 0.000000 NONE 0 0 0 0 1 0 0 0 0 0 0 0 0
