#	Name:			B46
#	Creating user name:	ccollar
#	Creation time:		Mon Jan 17 13:03:22 2005

#	Modifying user name:	ccollar
#	Modification time:	Mon Jan 17 13:03:37 2005

@<TRIPOS>MOLECULE
B46
   74    77     2     1     0
SMALL
GASTEIGER


@<TRIPOS>ATOM
      1 C1         11.247636   15.681819    5.677769 C.ar      2 ISOPROPYL   -0.047108 
      2 C2         12.173093   15.713409    6.906781 C.3       2 ISOPROPYL   -0.025055 
      3 C3         11.772905   16.790278    7.960700 C.3       2 ISOPROPYL   -0.019042 
      4 C4         12.161350   18.277005    7.661109 C.3       2 ISOPROPYL    0.082569 
      5 C5         11.637287   18.804404    6.301710 C.3       2 ISOPROPYL    0.024442 
      6 C6         10.140907   18.743448    6.341337 C.2       2 ISOPROPYL    0.072124 
      7 C7          9.484159   18.996469    7.482520 C.2       2 ISOPROPYL    0.109797 
      8 C8         10.295054   19.314688    8.678480 C.2       2 ISOPROPYL    0.303197 
      9 O9         11.622227   19.095923    8.723039 O.3       2 ISOPROPYL   -0.304231 
     10 C1         13.701766   18.476271    7.725989 C.3       2 ISOPROPYL   -0.034831 
     11 C11         9.889436   15.384076    5.835394 C.ar      2 ISOPROPYL   -0.056142 
     12 C12         9.013054   15.432339    4.747760 C.ar      2 ISOPROPYL   -0.031682 
     13 O13         9.755990   19.806325    9.655836 O.2       2 ISOPROPYL   -0.258547 
     14 S14         7.695217   19.000991    7.628622 S.3       2 ISOPROPYL   -0.081047 
     15 C15         7.385156   17.299661    8.042999 C.ar      2 ISOPROPYL    0.017060 
     16 C16         8.125865   16.730006    9.083617 C.ar      2 ISOPROPYL   -0.042265 
     17 C17         8.164661   15.346779    9.267301 C.ar      2 ISOPROPYL   -0.017068 
     18 C18         7.414087   14.547778    8.402852 C.ar      2 ISOPROPYL    0.110374 
     19 C19         6.598825   15.137800    7.434263 C.ar      2 ISOPROPYL   -0.024329 
     20 C20         6.427207   16.529179    7.358104 C.ar      2 ISOPROPYL   -0.025729 
     21 O21         9.544341   18.442347    5.179830 O.3       2 ISOPROPYL   -0.362719 
     22 C22         9.022338   14.736500   10.382416 C.3       2 ISOPROPYL   -0.037158 
     23 C23         5.214770   17.140016    6.585508 C.3       2 ISOPROPYL   -0.011542 
     24 C24         4.450070   18.117106    7.530964 C.3       2 ISOPROPYL   -0.056008 
     25 C25         4.172382   16.053150    6.161102 C.3       2 ISOPROPYL   -0.056008 
     26 C26         5.650678   17.872787    5.282233 C.3       2 ISOPROPYL   -0.056008 
     27 O27         7.478817   13.161132    8.501753 O.3       1 AMINO      -0.196110 
     28 C28         9.494496   15.757008    3.474309 C.ar      2 ISOPROPYL    0.072598 
     29 C29        10.860883   15.989119    3.300996 C.ar      2 ISOPROPYL   -0.031682 
     30 C30        11.735925   15.932416    4.389874 C.ar      2 ISOPROPYL   -0.056142 
     31 O31         8.639647   15.850043    2.371820 O.3       2 ISOPROPYL   -0.359832 
     32 H1         13.226986   15.824553    6.615469 H         2 ISOPROPYL    0.031407 
     33 H2         12.074149   14.717605    7.369935 H         2 ISOPROPYL    0.031407 
     34 S34         6.312150   12.614125    9.273406 S.o2      1 AMINO       0.116734 
     35 O35         6.287495   13.227039   10.587877 O.2       1 AMINO      -0.141558 
     36 O36         5.128804   12.675528    8.437293 O.2       1 AMINO      -0.141558 
     37 C37         6.802445   10.918132    9.452058 C.ar      1 AMINO       0.117639 
     38 C38         7.652027   10.547505   10.498923 C.ar      1 AMINO      -0.031670 
     39 C39         8.058069    9.216577   10.635057 C.ar      1 AMINO      -0.024573 
     40 C40         7.622671    8.256674    9.718021 C.ar      1 AMINO       0.123516 
     41 C41         6.785210    8.627487    8.662965 C.ar      1 AMINO      -0.024573 
     42 C42         6.379558    9.958634    8.526929 C.ar      1 AMINO      -0.031670 
     43 H3         12.254534   16.524817    8.916113 H         2 ISOPROPYL    0.029623 
     44 H4         10.692886   16.713780    8.134757 H         2 ISOPROPYL    0.029623 
     45 H5         12.055918   18.234291    5.464958 H         2 ISOPROPYL    0.036113 
     46 H6         11.920937   19.858975    6.163249 H         2 ISOPROPYL    0.036113 
     47 H7         13.939932   19.548764    7.655401 H         2 ISOPROPYL    0.025757 
     48 H8         14.214517   17.959968    6.902037 H         2 ISOPROPYL    0.025757 
     49 H9         14.102347   18.104972    8.681396 H         2 ISOPROPYL    0.025757 
     50 H10         9.507820   15.105383    6.808963 H         2 ISOPROPYL    0.062108 
     51 H11         7.962057   15.213888    4.899278 H         2 ISOPROPYL    0.064328 
     52 H12         8.683640   17.369287    9.758240 H         2 ISOPROPYL    0.063214 
     53 H13         6.108836   14.461851    6.748377 H         2 ISOPROPYL    0.064734 
     54 H14         8.597601   18.388010    5.188892 H         2 ISOPROPYL    0.216929 
     55 H15         8.463015   14.783564   11.328364 H         2 ISOPROPYL    0.027834 
     56 H16         9.961038   15.300391   10.492233 H         2 ISOPROPYL    0.027834 
     57 H17         9.275788   13.687626   10.168346 H         2 ISOPROPYL    0.027834 
     58 H18         5.057664   18.974726    7.842581 H         2 ISOPROPYL    0.023804 
     59 H19         4.131281   17.581640    8.438707 H         2 ISOPROPYL    0.023804 
     60 H20         3.554688   18.524873    7.037093 H         2 ISOPROPYL    0.023804 
     61 H21         3.878292   15.433346    7.022797 H         2 ISOPROPYL    0.023804 
     62 H22         4.565714   15.405163    5.363088 H         2 ISOPROPYL    0.023804 
     63 H23         3.255465   16.513562    5.761400 H         2 ISOPROPYL    0.023804 
     64 H24         4.772356   18.133631    4.671907 H         2 ISOPROPYL    0.023804 
     65 H25         6.301465   17.217784    4.684211 H         2 ISOPROPYL    0.023804 
     66 H26         6.179462   18.811750    5.480321 H         2 ISOPROPYL    0.023804 
     67 H27        11.238915   16.215516    2.309706 H         2 ISOPROPYL    0.064328 
     68 H28        12.797405   16.088952    4.226385 H         2 ISOPROPYL    0.062108 
     69 H29         7.719638   15.726074    2.575398 H         2 ISOPROPYL    0.217313 
     70 H30         7.996793   11.295260   11.205640 H         1 AMINO       0.063815 
     71 H31         8.711338    8.922632   11.450069 H         1 AMINO       0.064668 
     72 H32         6.453636    7.877454    7.952360 H         1 AMINO       0.064668 
     73 H33         5.736613   10.247435    7.702087 H         1 AMINO       0.063815 
     74 F79         8.006026    6.989937    9.849023 F         1 AMINO      -0.205487 
@<TRIPOS>BOND
     1    2    1 1    
     2    2    3 1    
     3    3    4 1    
     4    4    5 1    
     5    5    6 1    
     6    6    7 2    
     7    7    8 1    
     8    8    9 1    
     9    4    9 1    
    10    2   32 1    
    11    1   11 ar   
    12   11   12 ar   
    13    8   13 2    
    14    7   14 1    
    15   14   15 1    
    16   15   16 ar   
    17   16   17 ar   
    18   17   18 ar   
    19   18   19 ar   
    20   19   20 ar   
    21   15   20 ar   
    22    6   21 1    
    23   17   22 1    
    24   20   23 1    
    25   23   24 1    
    26   23   25 1    
    27   23   26 1    
    28   27   34 1    
    29   12   28 ar   
    30   28   29 ar   
    31   29   30 ar   
    32    1   30 ar   
    33   28   31 1    
    34    2   33 1    
    35    4   10 1    
    36   34   35 2    
    37   18   27 1    
    38   34   36 2    
    39   34   37 1    
    40   37   38 ar   
    41   38   39 ar   
    42   39   40 ar   
    43   40   41 ar   
    44   41   42 ar   
    45   37   42 ar   
    46    3   43 1    
    47    3   44 1    
    48    5   45 1    
    49    5   46 1    
    50   10   47 1    
    51   10   48 1    
    52   10   49 1    
    53   11   50 1    
    54   12   51 1    
    55   16   52 1    
    56   19   53 1    
    57   21   54 1    
    58   22   55 1    
    59   22   56 1    
    60   22   57 1    
    61   24   58 1    
    62   24   59 1    
    63   24   60 1    
    64   25   61 1    
    65   25   62 1    
    66   25   63 1    
    67   26   64 1    
    68   26   65 1    
    69   26   66 1    
    70   29   67 1    
    71   30   68 1    
    72   31   69 1    
    73   38   70 1    
    74   39   71 1    
    75   41   72 1    
    76   42   73 1    
    77   40   74 1    
@<TRIPOS>SUBSTRUCTURE
     1 AMINO      27 PERM              0 ****  ****    1  
     2 ISOPROPYL    10 PERM              0 ****  ****    1 ROOT 
@<TRIPOS>NORMAL
@<TRIPOS>FF_PBC
FORCE_FIELD_SETUP_FEATURE Force Field Setup information
v1.0  0 0.000000 0.000000 0.000000 0.000000 0.000000 0.000000 NONE 0 0 0 0 1 0 0 0 0 0 0 0 0
