#	Name:			B48
#	Creating user name:	ccollar
#	Creation time:		Mon Jan 17 13:04:36 2005

#	Modifying user name:	ccollar
#	Modification time:	Mon Jan 17 13:04:47 2005

@<TRIPOS>MOLECULE
B48
   88    92     3     1     0
SMALL
GASTEIGER


@<TRIPOS>ATOM
      1 C1         11.229886   15.745733    5.704582 C.ar      2 ISOPROPYL   -0.047108 
      2 C2         12.216503   15.767045    6.885130 C.3       2 ISOPROPYL   -0.025036 
      3 C3         11.920006   16.843542    7.978343 C.3       2 ISOPROPYL   -0.018518 
      4 C4         12.274531   18.351932    7.715466 C.3       2 ISOPROPYL    0.088144 
      5 C5         11.777960   18.852535    6.332362 C.3       2 ISOPROPYL    0.024964 
      6 C6         10.282887   18.735503    6.290040 C.2       2 ISOPROPYL    0.072143 
      7 C7          9.554748   18.959040    7.392577 C.2       2 ISOPROPYL    0.109797 
      8 C8         10.284219   19.293417    8.631713 C.2       2 ISOPROPYL    0.303214 
      9 O9         11.610019   19.114163    8.753853 O.3       2 ISOPROPYL   -0.303676 
     10 C1         13.789762   18.685726    7.981269 C.3       2 ISOPROPYL   -0.010879 
     11 C11         9.892320   15.396324    5.920140 C.ar      2 ISOPROPYL   -0.056142 
     12 C12         8.977171   15.379142    4.863766 C.ar      2 ISOPROPYL   -0.031682 
     13 O13         9.676758   19.765064    9.578336 O.2       2 ISOPROPYL   -0.258547 
     14 S14         7.761237   18.920577    7.441267 S.3       2 ISOPROPYL   -0.081047 
     15 C15         7.419014   17.241845    7.919609 C.ar      2 ISOPROPYL    0.017060 
     16 C16         8.136112   16.702919    8.993057 C.ar      2 ISOPROPYL   -0.042265 
     17 C17         8.132550   15.331218    9.250097 C.ar      2 ISOPROPYL   -0.017068 
     18 C18         7.355857   14.511859    8.429674 C.ar      2 ISOPROPYL    0.110374 
     19 C19         6.563392   15.074017    7.426361 C.ar      2 ISOPROPYL   -0.024329 
     20 C20         6.452119   16.463769    7.254956 C.ar      2 ISOPROPYL   -0.025729 
     21 O21         9.758544   18.427818    5.095485 O.3       2 ISOPROPYL   -0.362719 
     22 C22         8.971188   14.752536   10.396163 C.3       2 ISOPROPYL   -0.037158 
     23 C23         5.290360   17.071653    6.403028 C.3       2 ISOPROPYL   -0.011542 
     24 C24         4.504806   18.095771    7.278907 C.3       2 ISOPROPYL   -0.056008 
     25 C25         4.242953   15.995034    5.964845 C.3       2 ISOPROPYL   -0.056008 
     26 C26         5.796518   17.751231    5.094555 C.3       2 ISOPROPYL   -0.056008 
     27 O27         7.370890   13.131866    8.609750 O.3       1 AMINO      -0.196110 
     28 C28         9.385564   15.736625    3.573825 C.ar      2 ISOPROPYL    0.072598 
     29 C29        10.724028   16.066153    3.350355 C.ar      2 ISOPROPYL   -0.031682 
     30 C30        11.645835   16.043727    4.401001 C.ar      2 ISOPROPYL   -0.056142 
     31 O31         8.485136   15.769274    2.504754 O.3       2 ISOPROPYL   -0.359832 
     32 C2         14.113012   20.206560    7.907643 C.3       2 ISOPROPYL   -0.047568 
     33 C3         14.837024   17.916881    7.114740 C.3       2 ISOPROPYL   -0.047568 
     34 S34         6.180967   12.669650    9.401429 S.o2      1 AMINO       0.116732 
     35 O35         6.126337   13.412520   10.646415 O.2       1 AMINO      -0.141559 
     36 O36         5.021185   12.660258    8.530956 O.2       1 AMINO      -0.141559 
     37 C37         6.633053   10.993858    9.770719 C.ar      1 AMINO       0.117542 
     38 C38         7.441974   10.720984   10.877755 C.ar      1 AMINO      -0.033165 
     39 C39         7.817820    9.405673   11.166364 C.ar      1 AMINO      -0.042473 
     40 C40         7.393028    8.360040   10.340968 C.ar      1 AMINO       0.051887 
     41 C41         6.596834    8.633273    9.224447 C.ar      1 AMINO      -0.042473 
     42 C42         6.222086    9.949334    8.937290 C.ar      1 AMINO      -0.033165 
     43 C43        16.222115   18.629112    7.048654 C.3       2 ISOPROPYL   -0.052716 
     44 C44        16.510251   19.360846    8.380703 C.3       2 ISOPROPYL   -0.053037 
     45 C45        15.482495   20.511629    8.585967 C.3       2 ISOPROPYL   -0.052716 
     46 H1         13.243634   15.817919    6.511727 H         2 ISOPROPYL    0.031407 
     47 H2         12.113659   14.773970    7.353992 H         2 ISOPROPYL    0.031407 
     48 H3         12.453100   16.546402    8.895910 H         2 ISOPROPYL    0.029642 
     49 H4         10.850487   16.755202    8.210667 H         2 ISOPROPYL    0.029642 
     50 H5         12.249182   18.305465    5.510230 H         2 ISOPROPYL    0.036131 
     51 H6         11.987858   19.920978    6.188997 H         2 ISOPROPYL    0.036131 
     52 H7         13.965362   18.416991    9.038046 H         2 ISOPROPYL    0.032878 
     53 H8          9.560300   15.124691    6.913841 H         2 ISOPROPYL    0.062108 
     54 H9          7.951949   15.083563    5.050606 H         2 ISOPROPYL    0.064328 
     55 H10         8.707553   17.356055    9.640963 H         2 ISOPROPYL    0.063214 
     56 H11         6.042546   14.373220    6.790222 H         2 ISOPROPYL    0.064734 
     57 H12         8.814234   18.342156    5.052512 H         2 ISOPROPYL    0.216929 
     58 H13         8.405487   14.847029   11.334742 H         2 ISOPROPYL    0.027834 
     59 H14         9.919183   15.303486   10.491283 H         2 ISOPROPYL    0.027834 
     60 H15         9.207246   13.691635   10.225778 H         2 ISOPROPYL    0.027834 
     61 H16         5.117703   18.948618    7.593471 H         2 ISOPROPYL    0.023804 
     62 H17         4.129926   17.597694    8.186506 H         2 ISOPROPYL    0.023804 
     63 H18         3.644250   18.507040    6.729143 H         2 ISOPROPYL    0.023804 
     64 H19         3.877138   15.423717    6.832533 H         2 ISOPROPYL    0.023804 
     65 H20         4.666341   15.301866    5.221839 H         2 ISOPROPYL    0.023804 
     66 H21         3.365081   16.460916    5.490638 H         2 ISOPROPYL    0.023804 
     67 H22         4.952172   17.995622    4.431796 H         2 ISOPROPYL    0.023804 
     68 H23         6.468487   17.070557    4.552967 H         2 ISOPROPYL    0.023804 
     69 H24         6.323999   18.693891    5.274989 H         2 ISOPROPYL    0.023804 
     70 H25        11.043792   16.338966    2.350313 H         2 ISOPROPYL    0.064328 
     71 H26        12.688735   16.259407    4.191642 H         2 ISOPROPYL    0.062108 
     72 H27         7.621377   15.428102    2.706558 H         2 ISOPROPYL    0.217313 
     73 H28        13.337274   20.820504    8.393734 H         2 ISOPROPYL    0.026883 
     74 H29        14.159028   20.509722    6.849493 H         2 ISOPROPYL    0.026883 
     75 H30        14.491761   17.793833    6.077763 H         2 ISOPROPYL    0.026883 
     76 H31        14.989252   16.919513    7.559781 H         2 ISOPROPYL    0.026883 
     77 H32         7.778871   11.533444   11.513300 H         1 AMINO       0.063766 
     78 H33         8.439983    9.197356   12.031662 H         1 AMINO       0.063090 
     79 C           7.775728    7.003212   10.640213 C.1       3 CN          0.099155 
     80 H34         6.269169    7.823671    8.579160 H         1 AMINO       0.063090 
     81 N           8.083164    5.913252   10.880678 N.1       3 CN         -0.190869 
     82 H35         5.611745   10.160824    8.065552 H         1 AMINO       0.063766 
     83 H36        16.244275   19.374816    6.236042 H         2 ISOPROPYL    0.026538 
     84 H37        17.015026   17.891436    6.836551 H         2 ISOPROPYL    0.026538 
     85 H38        17.536078   19.766688    8.387998 H         2 ISOPROPYL    0.026529 
     86 H39        16.440498   18.622583    9.197377 H         2 ISOPROPYL    0.026529 
     87 H40        15.875585   21.453493    8.166025 H         2 ISOPROPYL    0.026538 
     88 H41        15.346097   20.665812    9.670095 H         2 ISOPROPYL    0.026538 
@<TRIPOS>BOND
     1    2    1 1    
     2    3    2 1    
     3    4    3 1    
     4    4    5 1    
     5    5    6 1    
     6    6    7 2    
     7    8    7 1    
     8    9    8 1    
     9    4    9 1    
    10   10   32 1    
    11    1   11 ar   
    12   11   12 ar   
    13    8   13 2    
    14    7   14 1    
    15   14   15 1    
    16   15   16 ar   
    17   16   17 ar   
    18   17   18 ar   
    19   19   18 ar   
    20   20   19 ar   
    21   15   20 ar   
    22    6   21 1    
    23   17   22 1    
    24   20   23 1    
    25   23   24 1    
    26   23   25 1    
    27   23   26 1    
    28   27   34 1    
    29   12   28 ar   
    30   29   28 ar   
    31   30   29 ar   
    32    1   30 ar   
    33   28   31 1    
    34   10   33 1    
    35   10    4 1    
    36   34   35 2    
    37   18   27 1    
    38   34   36 2    
    39   34   37 1    
    40   37   38 ar   
    41   38   39 ar   
    42   39   40 ar   
    43   40   41 ar   
    44   41   42 ar   
    45   37   42 ar   
    46   33   43 1    
    47   43   44 1    
    48   44   45 1    
    49   32   45 1    
    50    2   46 1    
    51    2   47 1    
    52    3   48 1    
    53    3   49 1    
    54    5   50 1    
    55    5   51 1    
    56   10   52 1    
    57   11   53 1    
    58   12   54 1    
    59   16   55 1    
    60   19   56 1    
    61   21   57 1    
    62   22   58 1    
    63   22   59 1    
    64   22   60 1    
    65   24   61 1    
    66   24   62 1    
    67   24   63 1    
    68   25   64 1    
    69   25   65 1    
    70   25   66 1    
    71   26   67 1    
    72   26   68 1    
    73   26   69 1    
    74   29   70 1    
    75   30   71 1    
    76   31   72 1    
    77   32   73 1    
    78   32   74 1    
    79   33   75 1    
    80   33   76 1    
    81   38   77 1    
    82   79   81 3    
    83   39   78 1    
    84   40   79 1    
    85   41   80 1    
    86   42   82 1    
    87   43   83 1    
    88   43   84 1    
    89   44   85 1    
    90   44   86 1    
    91   45   87 1    
    92   45   88 1    
@<TRIPOS>SUBSTRUCTURE
     1 AMINO      27 PERM              0 ****  ****    2  
     2 ISOPROPYL    10 PERM              0 ****  ****    1 ROOT 
     3 CN         79 PERM              0 ****  ****    1  
@<TRIPOS>NORMAL
@<TRIPOS>FF_PBC
FORCE_FIELD_SETUP_FEATURE Force Field Setup information
v1.0  0 0.000000 0.000000 0.000000 0.000000 0.000000 0.000000 NONE 0 0 0 0 1 0 0 0 0 0 0 0 0
