#	Name:			B49
#	Creating user name:	ccollar
#	Creation time:		Mon Jan 17 13:05:20 2005

#	Modifying user name:	ccollar
#	Modification time:	Mon Jan 17 13:05:32 2005

@<TRIPOS>MOLECULE
B49
   88    92     2     1     0
SMALL
GASTEIGER


@<TRIPOS>ATOM
      1 C1         11.224121   15.743467    5.705267 C.ar      2 ISOPROPYL   -0.047108 
      2 C2         12.203047   15.757896    6.892245 C.3       2 ISOPROPYL   -0.025036 
      3 C3         11.914336   16.842405    7.979477 C.3       2 ISOPROPYL   -0.018518 
      4 C4         12.271197   18.348696    7.706839 C.3       2 ISOPROPYL    0.088144 
      5 C5         11.767241   18.845679    6.324903 C.3       2 ISOPROPYL    0.024964 
      6 C6         10.271703   18.732262    6.291816 C.2       2 ISOPROPYL    0.072143 
      7 C7          9.551124   18.960056    7.398394 C.2       2 ISOPROPYL    0.109797 
      8 C8         10.288624   19.296823    8.632121 C.2       2 ISOPROPYL    0.303214 
      9 O9         11.614979   19.116789    8.746200 O.3       2 ISOPROPYL   -0.303676 
     10 C1         13.788720   18.680257    7.961831 C.3       2 ISOPROPYL   -0.010879 
     11 C11         9.880220   15.413503    5.912320 C.ar      2 ISOPROPYL   -0.056142 
     12 C12         8.974493   15.399513    4.847713 C.ar      2 ISOPROPYL   -0.031682 
     13 O13         9.687317   19.770733    9.581561 O.2       2 ISOPROPYL   -0.258547 
     14 S14         7.758224   18.923838    7.459011 S.3       2 ISOPROPYL   -0.081047 
     15 C15         7.420286   17.242619    7.931455 C.ar      2 ISOPROPYL    0.017015 
     16 C16         8.133635   16.700016    9.004360 C.ar      2 ISOPROPYL   -0.042990 
     17 C17         8.101433   15.331461    9.280084 C.ar      2 ISOPROPYL   -0.027032 
     18 C18         7.356479   14.501963    8.436182 C.ar      2 ISOPROPYL    0.051284 
     19 C19         6.590441   15.073477    7.414612 C.ar      2 ISOPROPYL   -0.034329 
     20 C20         6.458666   16.463214    7.263529 C.ar      2 ISOPROPYL   -0.026451 
     21 O21         9.738973   18.423420    5.101243 O.3       2 ISOPROPYL   -0.362719 
     22 C22         8.868786   14.766996   10.483424 C.3       2 ISOPROPYL   -0.037884 
     23 C23         5.284930   17.070617    6.428797 C.3       2 ISOPROPYL   -0.011564 
     24 C24         4.498553   18.071818    7.329819 C.3       2 ISOPROPYL   -0.056009 
     25 C25         4.244045   15.991191    5.984937 C.3       2 ISOPROPYL   -0.056009 
     26 C26         5.771835   17.772611    5.125052 C.3       2 ISOPROPYL   -0.056009 
     27 N        7.375080   13.091245    8.617011 N.am      1 AMINO      -0.215992 
     28 C28         9.397558   15.744843    3.559227 C.ar      2 ISOPROPYL    0.072598 
     29 C29        10.741748   16.056454    3.344922 C.ar      2 ISOPROPYL   -0.031682 
     30 C30        11.654264   16.029084    4.403489 C.ar      2 ISOPROPYL   -0.056142 
     31 O31         8.506158   15.782941    2.482734 O.3       2 ISOPROPYL   -0.359832 
     32 C2         14.114975   20.199837    7.876336 C.3       2 ISOPROPYL   -0.047568 
     33 C3         14.828850   17.902960    7.094269 C.3       2 ISOPROPYL   -0.047568 
     34 S34         6.103366   12.123080    8.249150 S.o2      1 AMINO       0.072355 
     35 O35         6.181794   11.835834    6.830621 O.2       1 AMINO      -0.149969 
     36 O36         6.137920   11.009095    9.174938 O.2       1 AMINO      -0.149969 
     37 C37         4.586534   12.997828    8.549831 C.ar      1 AMINO       0.108667 
     38 C38         3.462605   12.736918    7.760372 C.ar      1 AMINO      -0.032369 
     39 C39         2.271567   13.434215    7.984489 C.ar      1 AMINO      -0.024595 
     40 C40         2.204177   14.392045    8.999480 C.ar      1 AMINO       0.123516 
     41 C41         3.317429   14.632522    9.808626 C.ar      1 AMINO      -0.024595 
     42 C42         4.501166   13.919303    9.598015 C.ar      1 AMINO      -0.032369 
     43 C43        16.214435   18.612614    7.012963 C.3       2 ISOPROPYL   -0.052716 
     44 C44        16.513566   19.352298    8.338220 C.3       2 ISOPROPYL   -0.053037 
     45 C45        15.489422   20.506208    8.543814 C.3       2 ISOPROPYL   -0.052716 
     46 H1         13.233328   15.794235    6.525770 H         2 ISOPROPYL    0.031407 
     47 H2         12.085056   14.768249    7.364777 H         2 ISOPROPYL    0.031407 
     48 H3         12.451102   16.549108    8.896134 H         2 ISOPROPYL    0.029642 
     49 H4         10.845775   16.757071    8.217352 H         2 ISOPROPYL    0.029642 
     50 H5         12.232774   18.295712    5.501494 H         2 ISOPROPYL    0.036131 
     51 H6         11.977648   19.913373    6.176878 H         2 ISOPROPYL    0.036131 
     52 H7         13.969903   18.417964    9.019314 H         2 ISOPROPYL    0.032878 
     53 H8          9.535456   15.155153    6.905339 H         2 ISOPROPYL    0.062108 
     54 H9          7.944632   15.116123    5.026456 H         2 ISOPROPYL    0.064328 
     55 H10         8.722182   17.353686    9.635889 H         2 ISOPROPYL    0.063191 
     56 H11         6.104634   14.394630    6.731662 H         2 ISOPROPYL    0.063973 
     57 H12         8.793979   18.342003    5.064110 H         2 ISOPROPYL    0.216929 
     58 H13         9.157668   15.559620   11.189908 H         2 ISOPROPYL    0.027812 
     59 H14         9.781699   14.267083   10.126607 H         2 ISOPROPYL    0.027812 
     60 H15         8.241599   14.043182   11.025506 H         2 ISOPROPYL    0.027812 
     61 H16         5.109472   18.922075    7.655634 H         2 ISOPROPYL    0.023804 
     62 H17         4.133807   17.553725    8.230666 H         2 ISOPROPYL    0.023804 
     63 H18         3.631131   18.487469    6.794368 H         2 ISOPROPYL    0.023804 
     64 H19         3.901305   15.407872    6.850963 H         2 ISOPROPYL    0.023804 
     65 H20         4.661313   15.311283    5.226553 H         2 ISOPROPYL    0.023804 
     66 H21         3.353215   16.453989    5.532546 H         2 ISOPROPYL    0.023804 
     67 H22         4.918347   18.018254    4.474567 H         2 ISOPROPYL    0.023804 
     68 H23         6.443778   17.104606    4.567567 H         2 ISOPROPYL    0.023804 
     69 H24         6.293122   18.717368    5.312335 H         2 ISOPROPYL    0.023804 
     70 H25         8.196189   12.639850    8.965141 H         1 AMINO       0.173687 
     71 H26        11.073160   16.319147    2.345963 H         2 ISOPROPYL    0.064328 
     72 H27        12.701295   16.231666    4.201781 H         2 ISOPROPYL    0.062108 
     73 H28         7.632431   15.467291    2.683244 H         2 ISOPROPYL    0.217313 
     74 H29        13.343635   20.818553    8.363391 H         2 ISOPROPYL    0.026883 
     75 H30        14.155102   20.496155    6.816011 H         2 ISOPROPYL    0.026883 
     76 H31        14.475702   17.771075    6.061019 H         2 ISOPROPYL    0.026883 
     77 H32        14.983512   16.909429    7.546943 H         2 ISOPROPYL    0.026883 
     78 H33         3.517328   11.993350    6.972149 H         1 AMINO       0.063793 
     79 F79         1.080169   15.074927    9.195589 F         1 AMINO      -0.205487 
     80 H34         1.397274   13.238231    7.372601 H         1 AMINO       0.064668 
     81 H35         3.256460   15.373171   10.599181 H         1 AMINO       0.064668 
     82 H36         5.353827   14.080991   10.248776 H         1 AMINO       0.063793 
     83 H37        16.231658   19.352784    6.195218 H         2 ISOPROPYL    0.026538 
     84 H38        17.004647   17.872324    6.799904 H         2 ISOPROPYL    0.026538 
     85 H39        17.540151   19.756294    8.335515 H         2 ISOPROPYL    0.026529 
     86 H40        16.448329   18.619361    9.160068 H         2 ISOPROPYL    0.026529 
     87 H41        15.881419   21.444899    8.115831 H         2 ISOPROPYL    0.026538 
     88 H42        15.360444   20.666901    9.627898 H         2 ISOPROPYL    0.026538 
@<TRIPOS>BOND
     1    2    1 1    
     2    3    2 1    
     3    4    3 1    
     4    4    5 1    
     5    5    6 1    
     6    6    7 2    
     7    8    7 1    
     8    9    8 1    
     9    4    9 1    
    10   10   32 1    
    11    1   11 ar   
    12   11   12 ar   
    13    8   13 2    
    14    7   14 1    
    15   14   15 1    
    16   15   16 ar   
    17   16   17 ar   
    18   17   18 ar   
    19   19   18 ar   
    20   20   19 ar   
    21   15   20 ar   
    22    6   21 1    
    23   17   22 1    
    24   20   23 1    
    25   23   24 1    
    26   23   25 1    
    27   23   26 1    
    28   27   34 1    
    29   12   28 ar   
    30   29   28 ar   
    31   30   29 ar   
    32    1   30 ar   
    33   28   31 1    
    34   10   33 1    
    35   10    4 1    
    36   34   35 2    
    37   18   27 1    
    38   34   36 2    
    39   34   37 1    
    40   37   38 ar   
    41   38   39 ar   
    42   39   40 ar   
    43   40   41 ar   
    44   41   42 ar   
    45   37   42 ar   
    46   33   43 1    
    47   43   44 1    
    48   44   45 1    
    49   32   45 1    
    50    2   46 1    
    51    2   47 1    
    52    3   48 1    
    53    3   49 1    
    54    5   50 1    
    55    5   51 1    
    56   10   52 1    
    57   11   53 1    
    58   12   54 1    
    59   16   55 1    
    60   19   56 1    
    61   21   57 1    
    62   22   58 1    
    63   22   59 1    
    64   22   60 1    
    65   24   61 1    
    66   24   62 1    
    67   24   63 1    
    68   25   64 1    
    69   25   65 1    
    70   25   66 1    
    71   26   67 1    
    72   26   68 1    
    73   26   69 1    
    74   27   70 1    
    75   29   71 1    
    76   30   72 1    
    77   31   73 1    
    78   32   74 1    
    79   32   75 1    
    80   33   76 1    
    81   33   77 1    
    82   40   79 1    
    83   38   78 1    
    84   39   80 1    
    85   41   81 1    
    86   42   82 1    
    87   43   83 1    
    88   43   84 1    
    89   44   85 1    
    90   44   86 1    
    91   45   87 1    
    92   45   88 1    
@<TRIPOS>SUBSTRUCTURE
     1 AMINO      27 PERM              0 ****  ****    1  
     2 ISOPROPYL    10 PERM              0 ****  ****    1 ROOT 
@<TRIPOS>NORMAL
@<TRIPOS>FF_PBC
FORCE_FIELD_SETUP_FEATURE Force Field Setup information
v1.0  0 0.000000 0.000000 0.000000 0.000000 0.000000 0.000000 NONE 0 0 0 0 1 0 0 0 0 0 0 0 0
