#	Name:			B50
#	Creating user name:	ccollar
#	Creation time:		Mon Jan 17 13:06:23 2005

#	Modifying user name:	ccollar
#	Modification time:	Mon Jan 17 13:06:34 2005

@<TRIPOS>MOLECULE
B50
   84    88     2     1     0
SMALL
GASTEIGER


@<TRIPOS>ATOM
      1 C1         11.202171   15.654856    5.692995 C.ar      2 ISOPROPYL   -0.047108 
      2 C2         12.031869   15.617117    6.986588 C.3       2 ISOPROPYL   -0.025036 
      3 C3         11.778765   16.807448    7.964748 C.3       2 ISOPROPYL   -0.018518 
      4 C4         12.154996   18.289346    7.590409 C.3       2 ISOPROPYL    0.088144 
      5 C5         11.514125   18.765429    6.256926 C.3       2 ISOPROPYL    0.024964 
      6 C6         10.020973   18.738503    6.384323 C.2       2 ISOPROPYL    0.072143 
      7 C7          9.431682   18.998880    7.559167 C.2       2 ISOPROPYL    0.109797 
      8 C8         10.307820   19.307138    8.707479 C.2       2 ISOPROPYL    0.303214 
      9 O9         11.637197   19.108575    8.669918 O.3       2 ISOPROPYL   -0.303676 
     10 C1         13.685634   18.655183    7.599566 C.3       2 ISOPROPYL   -0.010879 
     11 C11        11.816377   15.752946    4.438724 C.ar      2 ISOPROPYL   -0.056142 
     12 C12        11.041845   15.820502    3.276796 C.ar      2 ISOPROPYL   -0.031682 
     13 O13         9.822341   19.775765    9.723403 O.2       2 ISOPROPYL   -0.258547 
     14 S14         7.654106   19.025261    7.806616 S.3       2 ISOPROPYL   -0.081047 
     15 C15         7.360510   17.309675    8.167178 C.ar      2 ISOPROPYL    0.017060 
     16 C16         8.143012   16.698725    9.152080 C.ar      2 ISOPROPYL   -0.042264 
     17 C17         8.199149   15.308062    9.263599 C.ar      2 ISOPROPYL   -0.017023 
     18 C18         7.428963   14.545423    8.382808 C.ar      2 ISOPROPYL    0.111714 
     19 C19         6.576474   15.175430    7.472705 C.ar      2 ISOPROPYL   -0.024284 
     20 C20         6.377401   16.564654    7.491202 C.ar      2 ISOPROPYL   -0.025728 
     21 O21         9.353177   18.462171    5.255666 O.3       2 ISOPROPYL   -0.362719 
     22 C22         9.097978   14.652272   10.318834 C.3       2 ISOPROPYL   -0.037157 
     23 C23         5.113608   17.197319    6.828468 C.3       2 ISOPROPYL   -0.011542 
     24 C24         4.409012   18.128780    7.862609 C.3       2 ISOPROPYL   -0.056008 
     25 C25         4.053617   16.117258    6.431832 C.3       2 ISOPROPYL   -0.056008 
     26 C26         5.459093   17.987185    5.532209 C.3       2 ISOPROPYL   -0.056008 
     27 O27         7.511108   13.156564    8.406599 O.3       1 AMINO      -0.183743 
     28 C28         9.647871   15.764287    3.346497 C.ar      2 ISOPROPYL    0.072598 
     29 C29         9.030670   15.623787    4.594858 C.ar      2 ISOPROPYL   -0.031682 
     30 C30         9.806977   15.573699    5.755769 C.ar      2 ISOPROPYL   -0.056142 
     31 C31        14.492681   18.239281    6.329577 C.3       2 ISOPROPYL   -0.047568 
     32 C32         7.718270   10.435302   10.050815 C.2       1 AMINO       0.110283 
     33 N33         7.824848    9.204857    9.828383 N.2       1 AMINO      -0.244918 
     34 S34         6.376550   12.556747    9.185871 S.o2      1 AMINO       0.178103 
     35 O35         6.407765   13.080360   10.537806 O.2       1 AMINO      -0.125601 
     36 O36         5.160828   12.671956    8.403976 O.2       1 AMINO      -0.125601 
     37 N37         6.804043   10.993207    9.243376 N.am      1 AMINO      -0.146809 
     38 C38         6.935955    8.797854    8.777280 C.2       1 AMINO       0.044893 
     39 C39         6.343696    9.966179    8.468802 C.2       1 AMINO       0.041566 
     40 C40        14.448256   18.298498    8.919255 C.3       2 ISOPROPYL   -0.047568 
     41 O41         8.900873   15.846387    2.167605 O.3       2 ISOPROPYL   -0.359832 
     42 C42        16.013466   18.343866    6.604291 C.3       2 ISOPROPYL   -0.052716 
     43 C43        16.447080   17.305906    7.680326 C.3       2 ISOPROPYL   -0.053037 
     44 C44        15.330244   17.039549    8.732139 C.3       2 ISOPROPYL   -0.052716 
     45 H1         13.095579   15.473915    6.770462 H         2 ISOPROPYL    0.031407 
     46 H2         11.713193   14.692631    7.497766 H         2 ISOPROPYL    0.031407 
     47 H3         12.276340   16.558408    8.912881 H         2 ISOPROPYL    0.029642 
     48 H4         10.704963   16.774827    8.184804 H         2 ISOPROPYL    0.029642 
     49 H5         11.847971   18.153160    5.412016 H         2 ISOPROPYL    0.036131 
     50 H6         11.787136   19.809800    6.042104 H         2 ISOPROPYL    0.036131 
     51 H7         13.694022   19.761264    7.577834 H         2 ISOPROPYL    0.032878 
     52 H8         12.897840   15.779892    4.356659 H         2 ISOPROPYL    0.062108 
     53 H9         11.520783   15.917423    2.308207 H         2 ISOPROPYL    0.064328 
     54 H10         8.719586   17.311558    9.836021 H         2 ISOPROPYL    0.063214 
     55 H11         6.080010   14.537133    6.755717 H         2 ISOPROPYL    0.064735 
     56 H12         8.406837   18.442802    5.314718 H         2 ISOPROPYL    0.216929 
     57 H13         8.572089   14.652266   11.284912 H         2 ISOPROPYL    0.027834 
     58 H14        10.037217   15.216544   10.421875 H         2 ISOPROPYL    0.027834 
     59 H15         9.349113   13.616068   10.047940 H         2 ISOPROPYL    0.027834 
     60 H16         4.157607   17.555000    8.768110 H         2 ISOPROPYL    0.023804 
     61 H17         3.478675   18.546845    7.448370 H         2 ISOPROPYL    0.023804 
     62 H18         5.030636   18.979727    8.164871 H         2 ISOPROPYL    0.023804 
     63 H19         4.391448   15.511308    5.577553 H         2 ISOPROPYL    0.023804 
     64 H20         3.104945   16.583370    6.123317 H         2 ISOPROPYL    0.023804 
     65 H21         3.833096   15.454154    7.283183 H         2 ISOPROPYL    0.023804 
     66 H22         6.010274   18.912397    5.735307 H         2 ISOPROPYL    0.023804 
     67 H23         4.539804   18.279297    5.001541 H         2 ISOPROPYL    0.023804 
     68 H24         6.058980   17.356894    4.859007 H         2 ISOPROPYL    0.023804 
     69 H25         7.951223   15.552386    4.672694 H         2 ISOPROPYL    0.064328 
     70 H26         9.316244   15.466587    6.712789 H         2 ISOPROPYL    0.062108 
     71 H27        14.236697   18.890648    5.476544 H         2 ISOPROPYL    0.026883 
     72 H28        14.287332   17.209481    6.023741 H         2 ISOPROPYL    0.026883 
     73 H29         8.294784   10.975766   10.801097 H         1 AMINO       0.101890 
     74 H30         6.787402    7.807446    8.348508 H         1 AMINO       0.084323 
     75 H31         5.587122   10.078424    7.692903 H         1 AMINO       0.081836 
     76 H32        13.753355   18.173177    9.763977 H         2 ISOPROPYL    0.026883 
     77 H33        15.136457   19.112445    9.207499 H         2 ISOPROPYL    0.026883 
     78 H34         7.961026   15.892403    2.301259 H         2 ISOPROPYL    0.217313 
     79 H35        16.230844   19.369461    6.947661 H         2 ISOPROPYL    0.026538 
     80 H36        16.588496   18.178264    5.677186 H         2 ISOPROPYL    0.026538 
     81 H37        17.356477   17.685483    8.176809 H         2 ISOPROPYL    0.026529 
     82 H38        16.708808   16.347191    7.200704 H         2 ISOPROPYL    0.026529 
     83 H39        15.786180   16.742279    9.691861 H         2 ISOPROPYL    0.026538 
     84 H40        14.690685   16.207068    8.405896 H         2 ISOPROPYL    0.026538 
@<TRIPOS>BOND
     1    2    1 1    
     2    2    3 1    
     3    3    4 1    
     4    4    5 1    
     5    5    6 1    
     6    6    7 2    
     7    7    8 1    
     8    8    9 1    
     9    4    9 1    
    10   37   32 am   
    11    1   11 ar   
    12   11   12 ar   
    13    8   13 2    
    14    7   14 1    
    15   14   15 1    
    16   15   16 ar   
    17   16   17 ar   
    18   17   18 ar   
    19   18   19 ar   
    20   19   20 ar   
    21   15   20 ar   
    22    6   21 1    
    23   17   22 1    
    24   20   23 1    
    25   23   24 1    
    26   23   25 1    
    27   23   26 1    
    28   27   34 1    
    29   12   28 ar   
    30   28   29 ar   
    31   29   30 ar   
    32    1   30 ar   
    33   10   31 1    
    34   32   33 2    
    35    4   10 1    
    36   34   35 2    
    37   18   27 1    
    38   34   36 2    
    39   34   37 1    
    40   33   38 1    
    41   38   39 2    
    42   37   39 am   
    43   10   40 1    
    44   28   41 1    
    45   31   42 1    
    46   42   43 1    
    47   43   44 1    
    48   40   44 1    
    49    2   45 1    
    50    2   46 1    
    51    3   47 1    
    52    3   48 1    
    53    5   49 1    
    54    5   50 1    
    55   10   51 1    
    56   11   52 1    
    57   12   53 1    
    58   16   54 1    
    59   19   55 1    
    60   21   56 1    
    61   22   57 1    
    62   22   58 1    
    63   22   59 1    
    64   24   60 1    
    65   24   61 1    
    66   24   62 1    
    67   25   63 1    
    68   25   64 1    
    69   25   65 1    
    70   26   66 1    
    71   26   67 1    
    72   26   68 1    
    73   29   69 1    
    74   30   70 1    
    75   31   71 1    
    76   31   72 1    
    77   32   73 1    
    78   38   74 1    
    79   39   75 1    
    80   40   76 1    
    81   40   77 1    
    82   41   78 1    
    83   42   79 1    
    84   42   80 1    
    85   43   81 1    
    86   43   82 1    
    87   44   83 1    
    88   44   84 1    
@<TRIPOS>SUBSTRUCTURE
     1 AMINO      27 PERM              0 ****  ****    1  
     2 ISOPROPYL    10 PERM              0 ****  ****    1 ROOT 
@<TRIPOS>NORMAL
@<TRIPOS>FF_PBC
FORCE_FIELD_SETUP_FEATURE Force Field Setup information
v1.0  0 0.000000 0.000000 0.000000 0.000000 0.000000 0.000000 NONE 0 0 0 0 1 0 0 0 0 0 0 0 0
