#	Name:			B51
#	Creating user name:	ccollar
#	Creation time:		Mon Jan 17 13:07:01 2005

#	Modifying user name:	ccollar
#	Modification time:	Mon Jan 17 13:07:34 2005

@<TRIPOS>MOLECULE
B51
   77    80     2     1     0
SMALL
GASTEIGER


@<TRIPOS>ATOM
      1 C1         11.328041   15.576343    5.633003 C.ar      2 ISOPROPYL   -0.047108 
      2 C2         12.053714   15.606461    6.985603 C.3       2 ISOPROPYL   -0.025046 
      3 C3         11.638646   16.812693    7.879856 C.3       2 ISOPROPYL   -0.018781 
      4 C4         11.962880   18.256474    7.364867 C.3       2 ISOPROPYL    0.085351 
      5 C5         11.080797   18.699666    6.163357 C.3       2 ISOPROPYL    0.024702 
      6 C6          9.649700   18.702075    6.610215 C.2       2 ISOPROPYL    0.072133 
      7 C7          9.333292   19.052713    7.865202 C.2       2 ISOPROPYL    0.109797 
      8 C8         10.443236   19.407277    8.775020 C.2       2 ISOPROPYL    0.303205 
      9 O9         11.730294   19.169987    8.462100 O.3       2 ISOPROPYL   -0.303954 
     10 C1         13.464183   18.427328    6.978164 C.3       2 ISOPROPYL   -0.023003 
     11 C11        12.041163   15.657968    4.430998 C.ar      2 ISOPROPYL   -0.056142 
     12 C12        11.361083   15.696876    3.210216 C.ar      2 ISOPROPYL   -0.031682 
     13 O13        10.196061   19.948351    9.839659 O.2       2 ISOPROPYL   -0.258547 
     14 S14         7.654788   19.134788    8.495749 S.3       2 ISOPROPYL   -0.081047 
     15 C15         7.316754   17.394515    8.571140 C.ar      2 ISOPROPYL    0.017060 
     16 C16         8.207536   16.581542    9.277262 C.ar      2 ISOPROPYL   -0.042264 
     17 C17         8.227603   15.201686    9.062882 C.ar      2 ISOPROPYL   -0.017023 
     18 C18         7.312343   14.661060    8.157109 C.ar      2 ISOPROPYL    0.111714 
     19 C19         6.350123   15.479006    7.558931 C.ar      2 ISOPROPYL   -0.024284 
     20 C20         6.202851   16.823117    7.932323 C.ar      2 ISOPROPYL   -0.025728 
     21 O21         8.752832   18.347930    5.678910 O.3       2 ISOPROPYL   -0.362719 
     22 C22         9.235904   14.298526    9.782657 C.3       2 ISOPROPYL   -0.037157 
     23 C23         4.866883   17.584154    7.673136 C.3       2 ISOPROPYL   -0.011542 
     24 C24         4.436764   18.331912    8.973355 C.3       2 ISOPROPYL   -0.056008 
     25 C25         3.697067   16.602419    7.334353 C.3       2 ISOPROPYL   -0.056008 
     26 C26         4.988531   18.582672    6.486263 C.3       2 ISOPROPYL   -0.056008 
     27 O27         7.363137   13.304581    7.849597 O.3       1 AMINO      -0.183743 
     28 C28         9.965693   15.645663    3.171510 C.ar      2 ISOPROPYL    0.072598 
     29 C29         9.251350   15.524523    4.369376 C.ar      2 ISOPROPYL   -0.031682 
     30 C30         9.933474   15.469427    5.587920 C.ar      2 ISOPROPYL   -0.056142 
     31 C31        15.921265   18.445448    7.707526 C.3       2 ISOPROPYL   -0.065187 
     32 C32         7.838336   10.440872    8.922610 C.2       1 AMINO       0.110283 
     33 N33         7.964760    9.245073    8.563707 N.2       1 AMINO      -0.244918 
     34 S34         6.263209   12.537038    8.525639 S.o2      1 AMINO       0.178103 
     35 O35         6.275651   12.842591    9.943301 O.2       1 AMINO      -0.125601 
     36 O36         5.039344   12.710938    7.768161 O.2       1 AMINO      -0.125601 
     37 N37         6.770756   11.007766    8.341539 N.am      1 AMINO      -0.146809 
     38 C38         6.925343    8.876004    7.644993 C.2       1 AMINO       0.044893 
     39 C39         6.230562   10.025417    7.560496 C.2       1 AMINO       0.041566 
     40 C40        14.464964   18.111745    8.126462 C.3       2 ISOPROPYL   -0.053278 
     41 O41         9.314553   15.714029    1.936281 O.3       2 ISOPROPYL   -0.359832 
     42 H1         13.144454   15.584922    6.848407 H         2 ISOPROPYL    0.031407 
     43 H2         11.782242   14.672171    7.504410 H         2 ISOPROPYL    0.031407 
     44 H3         12.126330   16.687473    8.859435 H         2 ISOPROPYL    0.029632 
     45 H4         10.564026   16.726050    8.070325 H         2 ISOPROPYL    0.029632 
     46 H5         11.225594   18.066681    5.280302 H         2 ISOPROPYL    0.036122 
     47 H6         11.321867   19.733012    5.870495 H         2 ISOPROPYL    0.036122 
     48 H7         13.617466   19.480933    6.693365 H         2 ISOPROPYL    0.029310 
     49 H8         13.701223   17.811262    6.097327 H         2 ISOPROPYL    0.029310 
     50 H9         13.125659   15.695863    4.435214 H         2 ISOPROPYL    0.062108 
     51 H10        11.915159   15.769101    2.280248 H         2 ISOPROPYL    0.064328 
     52 H11         8.894351   17.033297    9.985707 H         2 ISOPROPYL    0.063214 
     53 H12         5.727291   15.030488    6.798056 H         2 ISOPROPYL    0.064735 
     54 H13         7.843566   18.336090    5.947416 H         2 ISOPROPYL    0.216929 
     55 H14         8.731801   13.789712   10.617237 H         2 ISOPROPYL    0.027834 
     56 H15        10.083095   14.878836   10.178000 H         2 ISOPROPYL    0.027834 
     57 H16         9.631572   13.543647    9.086601 H         2 ISOPROPYL    0.027834 
     58 H17         4.369701   17.616396    9.807549 H         2 ISOPROPYL    0.023804 
     59 H18         3.453192   18.810306    8.848853 H         2 ISOPROPYL    0.023804 
     60 H19         5.134788   19.125721    9.262764 H         2 ISOPROPYL    0.023804 
     61 H20         3.809511   16.157853    6.334389 H         2 ISOPROPYL    0.023804 
     62 H21         2.727196   17.123487    7.329657 H         2 ISOPROPYL    0.023804 
     63 H22         3.639228   15.796137    8.082453 H         2 ISOPROPYL    0.023804 
     64 H23         5.680013   19.406718    6.700869 H         2 ISOPROPYL    0.023804 
     65 H24         4.008597   19.031577    6.262105 H         2 ISOPROPYL    0.023804 
     66 H25         5.338867   18.053992    5.586728 H         2 ISOPROPYL    0.023804 
     67 H26         8.167498   15.472052    4.364012 H         2 ISOPROPYL    0.064328 
     68 H27         9.367740   15.343123    6.502061 H         2 ISOPROPYL    0.062108 
     69 H28        16.616916   18.206851    8.527816 H         2 ISOPROPYL    0.022979 
     70 H29        16.020150   19.515859    7.468549 H         2 ISOPROPYL    0.022979 
     71 H30        16.209746   17.857590    6.822056 H         2 ISOPROPYL    0.022979 
     72 H31         8.508967   10.949362    9.614672 H         1 AMINO       0.101890 
     73 H32         6.752345    7.920151    7.151787 H         1 AMINO       0.084323 
     74 H33         5.343145   10.154944    6.941866 H         1 AMINO       0.081836 
     75 H34        14.430393   17.045172    8.396844 H         2 ISOPROPYL    0.026353 
     76 H35        14.205642   18.703356    9.020049 H         2 ISOPROPYL    0.026353 
     77 H36         8.366376   15.746804    1.993724 H         2 ISOPROPYL    0.217313 
@<TRIPOS>BOND
     1    2    1 1    
     2    2    3 1    
     3    3    4 1    
     4    4    5 1    
     5    5    6 1    
     6    6    7 2    
     7    7    8 1    
     8    8    9 1    
     9    4    9 1    
    10   37   32 am   
    11    1   11 ar   
    12   11   12 ar   
    13    8   13 2    
    14    7   14 1    
    15   14   15 1    
    16   15   16 ar   
    17   16   17 ar   
    18   17   18 ar   
    19   18   19 ar   
    20   19   20 ar   
    21   15   20 ar   
    22    6   21 1    
    23   17   22 1    
    24   20   23 1    
    25   23   24 1    
    26   23   25 1    
    27   23   26 1    
    28   27   34 1    
    29   12   28 ar   
    30   28   29 ar   
    31   29   30 ar   
    32    1   30 ar   
    33   40   31 1    
    34   32   33 2    
    35    4   10 1    
    36   34   35 2    
    37   18   27 1    
    38   34   36 2    
    39   34   37 1    
    40   33   38 1    
    41   38   39 2    
    42   37   39 am   
    43   10   40 1    
    44   28   41 1    
    45    2   42 1    
    46    2   43 1    
    47    3   44 1    
    48    3   45 1    
    49    5   46 1    
    50    5   47 1    
    51   10   48 1    
    52   10   49 1    
    53   11   50 1    
    54   12   51 1    
    55   16   52 1    
    56   19   53 1    
    57   21   54 1    
    58   22   55 1    
    59   22   56 1    
    60   22   57 1    
    61   24   58 1    
    62   24   59 1    
    63   24   60 1    
    64   25   61 1    
    65   25   62 1    
    66   25   63 1    
    67   26   64 1    
    68   26   65 1    
    69   26   66 1    
    70   29   67 1    
    71   30   68 1    
    72   31   69 1    
    73   31   70 1    
    74   31   71 1    
    75   32   72 1    
    76   38   73 1    
    77   39   74 1    
    78   40   75 1    
    79   40   76 1    
    80   41   77 1    
@<TRIPOS>SUBSTRUCTURE
     1 AMINO      27 PERM              0 ****  ****    1  
     2 ISOPROPYL    10 PERM              0 ****  ****    1 ROOT 
@<TRIPOS>NORMAL
@<TRIPOS>FF_PBC
FORCE_FIELD_SETUP_FEATURE Force Field Setup information
v1.0  0 0.000000 0.000000 0.000000 0.000000 0.000000 0.000000 NONE 0 0 0 0 1 0 0 0 0 0 0 0 0
