#	Name:			B52
#	Creating user name:	ccollar
#	Creation time:		Mon Jan 17 13:08:03 2005

#	Modifying user name:	ccollar
#	Modification time:	Mon Jan 17 13:08:17 2005

@<TRIPOS>MOLECULE
B52
   80    83     2     1     0
SMALL
GASTEIGER


@<TRIPOS>ATOM
      1 C1         11.213445   15.584070    5.653130 C.ar      2 ISOPROPYL   -0.047108 
      2 C2         11.947226   15.565654    7.004039 C.3       2 ISOPROPYL   -0.025037 
      3 C3         11.639457   16.784964    7.924777 C.3       2 ISOPROPYL   -0.018527 
      4 C4         12.039761   18.243623    7.495357 C.3       2 ISOPROPYL    0.087885 
      5 C5         11.281916   18.726014    6.224284 C.3       2 ISOPROPYL    0.024955 
      6 C6          9.806842   18.756450    6.493792 C.2       2 ISOPROPYL    0.072142 
      7 C7          9.340487   19.039410    7.717202 C.2       2 ISOPROPYL    0.109797 
      8 C8         10.334008   19.326842    8.769826 C.2       2 ISOPROPYL    0.303214 
      9 O9         11.648080   19.104511    8.594626 O.3       2 ISOPROPYL   -0.303685 
     10 C1         13.585253   18.521092    7.358688 C.3       2 ISOPROPYL   -0.013958 
     11 C11        11.921614   15.532954    4.446464 C.ar      2 ISOPROPYL   -0.056142 
     12 C12        11.247240   15.631199    3.225874 C.ar      2 ISOPROPYL   -0.031682 
     13 O13         9.963976   19.800744    9.830847 O.2       2 ISOPROPYL   -0.258547 
     14 S14         7.596801   19.106585    8.137100 S.3       2 ISOPROPYL   -0.081047 
     15 C15         7.324195   17.368125    8.381026 C.ar      2 ISOPROPYL    0.017060 
     16 C16         8.170861   16.683874    9.258168 C.ar      2 ISOPROPYL   -0.042264 
     17 C17         8.264937   15.291139    9.214478 C.ar      2 ISOPROPYL   -0.017023 
     18 C18         7.459959   14.604387    8.302773 C.ar      2 ISOPROPYL    0.111714 
     19 C19         6.532424   15.300839    7.523567 C.ar      2 ISOPROPYL   -0.024284 
     20 C20         6.302594   16.672026    7.711807 C.ar      2 ISOPROPYL   -0.025728 
     21 O21         9.024639   18.496174    5.436659 O.3       2 ISOPROPYL   -0.362719 
     22 C22         9.238895   14.540908   10.130978 C.3       2 ISOPROPYL   -0.037157 
     23 C23         4.974042   17.332167    7.231186 C.3       2 ISOPROPYL   -0.011542 
     24 C24         4.370807   18.178927    8.394257 C.3       2 ISOPROPYL   -0.056008 
     25 C25         3.890412   16.264078    6.868134 C.3       2 ISOPROPYL   -0.056008 
     26 C26         5.186774   18.215932    5.968625 C.3       2 ISOPROPYL   -0.056008 
     27 O27         7.583450   13.224882    8.167551 O.3       1 AMINO      -0.183743 
     28 C28         9.855990   15.748100    3.189751 C.ar      2 ISOPROPYL    0.072598 
     29 C29         9.138166   15.740073    4.391244 C.ar      2 ISOPROPYL   -0.031682 
     30 C30         9.815694   15.646281    5.610061 C.ar      2 ISOPROPYL   -0.056142 
     31 C31        14.228383   18.140821    5.988423 C.3       2 ISOPROPYL   -0.059778 
     32 C32         8.018660   10.417468    9.494674 C.2       1 AMINO       0.110283 
     33 N33         8.174655    9.211390    9.185018 N.2       1 AMINO      -0.244918 
     34 S34         6.486034   12.499919    8.892169 S.o2      1 AMINO       0.178103 
     35 O35         6.497406   12.899806   10.285932 O.2       1 AMINO      -0.125601 
     36 O36         5.261212   12.615698    8.124904 O.2       1 AMINO      -0.125601 
     37 N37         7.005714   10.964159    8.806318 N.am      1 AMINO      -0.146809 
     38 C38         7.219157    8.812626    8.190684 C.2       1 AMINO       0.044893 
     39 C39         6.535797    9.957831    8.010532 C.2       1 AMINO       0.041566 
     40 C40        14.468505   17.962398    8.521749 C.3       2 ISOPROPYL   -0.050673 
     41 O41         9.212232   15.866659    1.954527 O.3       2 ISOPROPYL   -0.359832 
     42 C42        14.127863   18.528618    9.928957 C.3       2 ISOPROPYL   -0.064944 
     43 H1         13.030459   15.438153    6.884626 H         2 ISOPROPYL    0.031407 
     44 H2         11.589446   14.653715    7.511351 H         2 ISOPROPYL    0.031407 
     45 H3         12.099855   16.570747    8.899420 H         2 ISOPROPYL    0.029641 
     46 H4         10.561147   16.762889    8.109921 H         2 ISOPROPYL    0.029641 
     47 H5         11.479827   18.081355    5.359894 H         2 ISOPROPYL    0.036131 
     48 H6         11.580534   19.752846    5.963447 H         2 ISOPROPYL    0.036131 
     49 H7         13.693576   19.620027    7.401516 H         2 ISOPROPYL    0.032602 
     50 H8         12.999526   15.415261    4.444096 H         2 ISOPROPYL    0.062108 
     51 H9         11.802677   15.616918    2.294023 H         2 ISOPROPYL    0.064328 
     52 H10         8.768081   17.243067    9.970657 H         2 ISOPROPYL    0.063214 
     53 H11         6.002877   14.734032    6.770923 H         2 ISOPROPYL    0.064735 
     54 H12         8.088625   18.509606    5.586817 H         2 ISOPROPYL    0.216929 
     55 H13         8.716093   14.260284   11.056941 H         2 ISOPROPYL    0.027834 
     56 H14        10.102317   15.173526   10.386277 H         2 ISOPROPYL    0.027834 
     57 H15         9.615163   13.630871    9.640243 H         2 ISOPROPYL    0.027834 
     58 H16         4.222683   17.541258    9.279555 H         2 ISOPROPYL    0.023804 
     59 H17         3.397248   18.606052    8.108636 H         2 ISOPROPYL    0.023804 
     60 H18         5.009740   19.020276    8.686851 H         2 ISOPROPYL    0.023804 
     61 H19         4.136414   15.732235    5.936880 H         2 ISOPROPYL    0.023804 
     62 H20         2.907749   16.732676    6.703684 H         2 ISOPROPYL    0.023804 
     63 H21         3.777006   15.532142    7.683312 H         2 ISOPROPYL    0.023804 
     64 H22         5.769912   19.119280    6.183843 H         2 ISOPROPYL    0.023804 
     65 H23         4.218565   18.549483    5.564485 H         2 ISOPROPYL    0.023804 
     66 H24         5.704251   17.634990    5.189966 H         2 ISOPROPYL    0.023804 
     67 H25         8.055043   15.806649    4.388120 H         2 ISOPROPYL    0.064328 
     68 H26         9.240116   15.621743    6.525656 H         2 ISOPROPYL    0.062108 
     69 H27        15.283692   18.455157    5.963047 H         2 ISOPROPYL    0.023330 
     70 H28        13.739882   18.641549    5.140516 H         2 ISOPROPYL    0.023330 
     71 H29        14.210146   17.061268    5.814591 H         2 ISOPROPYL    0.023330 
     72 H30         8.627561   10.948400   10.225893 H         1 AMINO       0.101890 
     73 H31         7.089027    7.841962    7.713515 H         1 AMINO       0.084323 
     74 H32         5.706683   10.067784    7.312324 H         1 AMINO       0.081836 
     75 H33        15.517620   18.246043    8.330963 H         2 ISOPROPYL    0.026610 
     76 H34        14.434787   16.862407    8.536884 H         2 ISOPROPYL    0.026610 
     77 H35         8.280362   16.044004    2.014059 H         2 ISOPROPYL    0.217313 
     78 H36        13.151454   18.184554   10.296328 H         2 ISOPROPYL    0.022987 
     79 H37        14.126957   19.629509    9.908221 H         2 ISOPROPYL    0.022987 
     80 H38        14.887009   18.198225   10.655947 H         2 ISOPROPYL    0.022987 
@<TRIPOS>BOND
     1    2    1 1    
     2    2    3 1    
     3    3    4 1    
     4    4    5 1    
     5    5    6 1    
     6    6    7 2    
     7    7    8 1    
     8    8    9 1    
     9    4    9 1    
    10   37   32 am   
    11    1   11 ar   
    12   11   12 ar   
    13    8   13 2    
    14    7   14 1    
    15   14   15 1    
    16   15   16 ar   
    17   16   17 ar   
    18   17   18 ar   
    19   18   19 ar   
    20   19   20 ar   
    21   15   20 ar   
    22    6   21 1    
    23   17   22 1    
    24   20   23 1    
    25   23   24 1    
    26   23   25 1    
    27   23   26 1    
    28   27   34 1    
    29   12   28 ar   
    30   28   29 ar   
    31   29   30 ar   
    32    1   30 ar   
    33   10   31 1    
    34   32   33 2    
    35    4   10 1    
    36   34   35 2    
    37   18   27 1    
    38   34   36 2    
    39   34   37 1    
    40   33   38 1    
    41   38   39 2    
    42   37   39 am   
    43   10   40 1    
    44   28   41 1    
    45   40   42 1    
    46    2   43 1    
    47    2   44 1    
    48    3   45 1    
    49    3   46 1    
    50    5   47 1    
    51    5   48 1    
    52   10   49 1    
    53   11   50 1    
    54   12   51 1    
    55   16   52 1    
    56   19   53 1    
    57   21   54 1    
    58   22   55 1    
    59   22   56 1    
    60   22   57 1    
    61   24   58 1    
    62   24   59 1    
    63   24   60 1    
    64   25   61 1    
    65   25   62 1    
    66   25   63 1    
    67   26   64 1    
    68   26   65 1    
    69   26   66 1    
    70   29   67 1    
    71   30   68 1    
    72   31   69 1    
    73   31   70 1    
    74   31   71 1    
    75   32   72 1    
    76   38   73 1    
    77   39   74 1    
    78   40   75 1    
    79   40   76 1    
    80   41   77 1    
    81   42   78 1    
    82   42   79 1    
    83   42   80 1    
@<TRIPOS>SUBSTRUCTURE
     1 AMINO      27 PERM              0 ****  ****    1  
     2 ISOPROPYL    10 PERM              0 ****  ****    1 ROOT 
@<TRIPOS>NORMAL
@<TRIPOS>FF_PBC
FORCE_FIELD_SETUP_FEATURE Force Field Setup information
v1.0  0 0.000000 0.000000 0.000000 0.000000 0.000000 0.000000 NONE 0 0 0 0 1 0 0 0 0 0 0 0 0
