#	Name:			B54
#	Creating user name:	ccollar
#	Creation time:		Mon Jan 17 13:24:26 2005

#	Modifying user name:	ccollar
#	Modification time:	Mon Jan 17 13:24:37 2005

@<TRIPOS>MOLECULE
B54
   76    79     2     1     0
SMALL
GASTEIGER


@<TRIPOS>ATOM
      1 C1         11.220083   15.585177    5.651431 C.ar      2 ISOPROPYL   -0.047264 
      2 C2         11.953824   15.570702    7.002630 C.3       2 ISOPROPYL   -0.025039 
      3 C3         11.641390   16.790798    7.920273 C.3       2 ISOPROPYL   -0.018536 
      4 C4         12.028950   18.248298    7.479185 C.3       2 ISOPROPYL    0.087645 
      5 C5         11.265919   18.733508    6.214013 C.3       2 ISOPROPYL    0.024946 
      6 C6          9.794034   18.764139    6.498838 C.2       2 ISOPROPYL    0.072142 
      7 C7          9.339460   19.041899    7.728196 C.2       2 ISOPROPYL    0.109797 
      8 C8         10.339642   19.321618    8.777698 C.2       2 ISOPROPYL    0.303213 
      9 O9         11.652491   19.093969    8.596325 O.3       2 ISOPROPYL   -0.303695 
     10 C1         13.569030   18.533340    7.335318 C.3       2 ISOPROPYL   -0.016541 
     11 C11        11.929573   15.531779    4.445137 C.ar      2 ISOPROPYL   -0.058572 
     12 C12        11.258981   15.623164    3.221802 C.ar      2 ISOPROPYL   -0.061501 
     13 O13         9.975581   19.792478    9.842200 O.2       2 ISOPROPYL   -0.258547 
     14 S14         7.599032   19.111311    8.161480 S.3       2 ISOPROPYL   -0.081047 
     15 C15         7.323725   17.371963    8.394654 C.ar      2 ISOPROPYL    0.017060 
     16 C16         8.175286   16.678999    9.260059 C.ar      2 ISOPROPYL   -0.042264 
     17 C17         8.266174   15.286521    9.202669 C.ar      2 ISOPROPYL   -0.017023 
     18 C18         7.452506   14.609037    8.292028 C.ar      2 ISOPROPYL    0.111714 
     19 C19         6.521570   15.314000    7.524554 C.ar      2 ISOPROPYL   -0.024284 
     20 C20         6.295251   16.683570    7.728089 C.ar      2 ISOPROPYL   -0.025728 
     21 O21         9.002014   18.509827    5.447812 O.3       2 ISOPROPYL   -0.362719 
     22 C22         9.244230   14.519394   10.100343 C.3       2 ISOPROPYL   -0.037157 
     23 C23         4.963318   17.350170    7.266438 C.3       2 ISOPROPYL   -0.011542 
     24 C24         4.374530   18.190083    8.441876 C.3       2 ISOPROPYL   -0.056008 
     25 C25         3.873730   16.286605    6.908001 C.3       2 ISOPROPYL   -0.056008 
     26 C26         5.164720   18.242190    6.007872 C.3       2 ISOPROPYL   -0.056008 
     27 O27         7.571916   13.229890    8.148180 O.3       1 AMINO      -0.183743 
     28 C28         9.866400   15.733409    3.191664 C.ar      2 ISOPROPYL   -0.061742 
     29 C29         9.146185   15.733052    4.388558 C.ar      2 ISOPROPYL   -0.061501 
     30 C30         9.821982   15.645815    5.608534 C.ar      2 ISOPROPYL   -0.058572 
     31 C31        14.235052   18.152754    5.979587 C.3       2 ISOPROPYL   -0.060022 
     32 C32         8.022026   10.475669    9.536805 C.2       1 AMINO       0.110283 
     33 N33         8.198569    9.259492    9.282735 N.2       1 AMINO      -0.244918 
     34 S34         6.456824   12.501074    8.841662 S.o2      1 AMINO       0.178103 
     35 O35         6.396757   12.936133   10.223754 O.2       1 AMINO      -0.125601 
     36 O36         5.266462   12.575740    8.017344 O.2       1 AMINO      -0.125601 
     37 N37         7.001593   10.973549    8.822971 N.am      1 AMINO      -0.146809 
     38 C38         7.251345    8.799838    8.306966 C.2       1 AMINO       0.044893 
     39 C39         6.549219    9.924036    8.074174 C.2       1 AMINO       0.041566 
     40 C40        14.405522   17.966724    8.518188 C.3       2 ISOPROPYL   -0.060022 
     41 H1         13.037450   15.448702    6.881794 H         2 ISOPROPYL    0.031407 
     42 H2         11.601048   14.658588    7.512775 H         2 ISOPROPYL    0.031407 
     43 H3         12.109543   16.596062    8.897511 H         2 ISOPROPYL    0.029641 
     44 H4         10.563919   16.761423    8.109833 H         2 ISOPROPYL    0.029641 
     45 H5         11.464747   18.090500    5.348161 H         2 ISOPROPYL    0.036131 
     46 H6         11.563229   19.760877    5.954113 H         2 ISOPROPYL    0.036131 
     47 H7         13.672209   19.632926    7.391456 H         2 ISOPROPYL    0.032343 
     48 H8         13.007692   15.416889    4.445232 H         2 ISOPROPYL    0.062029 
     49 H9         11.820597   15.607734    2.292670 H         2 ISOPROPYL    0.061766 
     50 H10         8.778021   17.231552    9.973004 H         2 ISOPROPYL    0.063214 
     51 H11         5.986758   14.756099    6.769052 H         2 ISOPROPYL    0.064735 
     52 H12         8.067571   18.512848    5.607722 H         2 ISOPROPYL    0.216929 
     53 H13         8.704835   14.145716   10.982911 H         2 ISOPROPYL    0.027834 
     54 H14        10.068685   15.167565   10.433590 H         2 ISOPROPYL    0.027834 
     55 H15         9.677287   13.667198    9.555351 H         2 ISOPROPYL    0.027834 
     56 H16         4.236765   17.546915    9.324885 H         2 ISOPROPYL    0.023804 
     57 H17         3.397843   18.619561    8.170810 H         2 ISOPROPYL    0.023804 
     58 H18         5.017323   19.029361    8.731952 H         2 ISOPROPYL    0.023804 
     59 H19         4.108234   15.760707    5.970458 H         2 ISOPROPYL    0.023804 
     60 H20         2.890154   16.758062    6.757774 H         2 ISOPROPYL    0.023804 
     61 H21         3.768414   15.549201    7.719315 H         2 ISOPROPYL    0.023804 
     62 H22         5.755874   19.140549    6.222262 H         2 ISOPROPYL    0.023804 
     63 H23         4.193136   18.583842    5.618865 H         2 ISOPROPYL    0.023804 
     64 H24         5.669045   17.664318    5.218345 H         2 ISOPROPYL    0.023804 
     65 H25         9.345889   15.817130    2.242612 H         2 ISOPROPYL    0.061758 
     66 H26         8.062601   15.801873    4.371989 H         2 ISOPROPYL    0.061766 
     67 H27         9.245081   15.625127    6.523197 H         2 ISOPROPYL    0.062029 
     68 H28        15.293025   18.459249    5.987908 H         2 ISOPROPYL    0.023322 
     69 H29        13.761880   18.662613    5.127847 H         2 ISOPROPYL    0.023322 
     70 H30        14.211082   17.074433    5.798327 H         2 ISOPROPYL    0.023322 
     71 H31         8.620442   11.049479   10.243906 H         1 AMINO       0.101890 
     72 H32         7.138087    7.806255    7.874739 H         1 AMINO       0.084323 
     73 H33         5.719127    9.987483    7.371388 H         1 AMINO       0.081836 
     74 H34        13.959595   18.250928    9.483998 H         2 ISOPROPYL    0.023322 
     75 H35        15.431715   18.366016    8.490319 H         2 ISOPROPYL    0.023322 
     76 H36        14.471384   16.870338    8.463149 H         2 ISOPROPYL    0.023322 
@<TRIPOS>BOND
     1    2    1 1    
     2    2    3 1    
     3    3    4 1    
     4    4    5 1    
     5    5    6 1    
     6    6    7 2    
     7    7    8 1    
     8    8    9 1    
     9    4    9 1    
    10   37   32 am   
    11    1   11 ar   
    12   11   12 ar   
    13    8   13 2    
    14    7   14 1    
    15   14   15 1    
    16   15   16 ar   
    17   16   17 ar   
    18   17   18 ar   
    19   18   19 ar   
    20   19   20 ar   
    21   15   20 ar   
    22    6   21 1    
    23   17   22 1    
    24   20   23 1    
    25   23   24 1    
    26   23   25 1    
    27   23   26 1    
    28   27   34 1    
    29   12   28 ar   
    30   28   29 ar   
    31   29   30 ar   
    32    1   30 ar   
    33   10   31 1    
    34   32   33 2    
    35    4   10 1    
    36   34   35 2    
    37   18   27 1    
    38   34   36 2    
    39   34   37 1    
    40   33   38 1    
    41   38   39 2    
    42   37   39 am   
    43   10   40 1    
    44    2   41 1    
    45    2   42 1    
    46    3   43 1    
    47    3   44 1    
    48    5   45 1    
    49    5   46 1    
    50   10   47 1    
    51   11   48 1    
    52   12   49 1    
    53   16   50 1    
    54   19   51 1    
    55   21   52 1    
    56   22   53 1    
    57   22   54 1    
    58   22   55 1    
    59   24   56 1    
    60   24   57 1    
    61   24   58 1    
    62   25   59 1    
    63   25   60 1    
    64   25   61 1    
    65   26   62 1    
    66   26   63 1    
    67   26   64 1    
    68   28   65 1    
    69   29   66 1    
    70   30   67 1    
    71   31   68 1    
    72   31   69 1    
    73   31   70 1    
    74   32   71 1    
    75   38   72 1    
    76   39   73 1    
    77   40   74 1    
    78   40   75 1    
    79   40   76 1    
@<TRIPOS>SUBSTRUCTURE
     1 AMINO      27 PERM              0 ****  ****    1  
     2 ISOPROPYL    10 PERM              0 ****  ****    1 ROOT 
@<TRIPOS>NORMAL
@<TRIPOS>FF_PBC
FORCE_FIELD_SETUP_FEATURE Force Field Setup information
v1.0  0 0.000000 0.000000 0.000000 0.000000 0.000000 0.000000 NONE 0 0 0 0 1 0 0 0 0 0 0 0 0
