#	Name:			B55
#	Creating user name:	ccollar
#	Creation time:		Mon Jan 17 13:40:19 2005

#	Modifying user name:	ccollar
#	Modification time:	Mon Jan 17 13:40:36 2005

@<TRIPOS>MOLECULE
B55
   78    81     2     1     0
SMALL
GASTEIGER


@<TRIPOS>ATOM
      1 C1         11.232560   15.785589    5.690397 C.ar      2 ISOPROPYL   -0.047264 
      2 C2         12.260807   15.833157    6.835292 C.3       2 ISOPROPYL   -0.025039 
      3 C3         11.958915   16.857833    7.978059 C.3       2 ISOPROPYL   -0.018536 
      4 C4         12.303097   18.375370    7.762305 C.3       2 ISOPROPYL    0.087645 
      5 C5         11.855340   18.880223    6.363902 C.3       2 ISOPROPYL    0.024946 
      6 C6         10.363052   18.744594    6.268447 C.2       2 ISOPROPYL    0.072142 
      7 C7          9.594405   18.947076    7.347531 C.2       2 ISOPROPYL    0.109797 
      8 C8         10.274272   19.289095    8.611941 C.2       2 ISOPROPYL    0.303213 
      9 O9         11.595310   19.122535    8.781999 O.3       2 ISOPROPYL   -0.303695 
     10 C1         13.801340   18.722820    8.099895 C.3       2 ISOPROPYL   -0.016541 
     11 C11         9.916734   15.382524    5.945814 C.ar      2 ISOPROPYL   -0.058572 
     12 C12         8.975499   15.329414    4.913809 C.ar      2 ISOPROPYL   -0.061501 
     13 O13         9.628546   19.756889    9.534972 O.2       2 ISOPROPYL   -0.258547 
     14 S14         7.801470   18.877737    7.335622 S.3       2 ISOPROPYL   -0.081047 
     15 C15         7.440693   17.215028    7.861340 C.ar      2 ISOPROPYL    0.017060 
     16 C16         8.147524   16.693930    8.950685 C.ar      2 ISOPROPYL   -0.042265 
     17 C17         8.097589   15.333640    9.259865 C.ar      2 ISOPROPYL   -0.017068 
     18 C18         7.304646   14.504351    8.467716 C.ar      2 ISOPROPYL    0.110427 
     19 C19         6.560729   15.045375    7.416526 C.ar      2 ISOPROPYL   -0.024329 
     20 C20         6.464514   16.431769    7.216860 C.ar      2 ISOPROPYL   -0.025729 
     21 O21         9.881835   18.445371    5.053930 O.3       2 ISOPROPYL   -0.362719 
     22 C22         8.882699   14.737718   10.432756 C.3       2 ISOPROPYL   -0.037158 
     23 C23         5.304676   17.028142    6.356120 C.3       2 ISOPROPYL   -0.011542 
     24 C24         4.548402   18.105202    7.194089 C.3       2 ISOPROPYL   -0.056008 
     25 C25         4.229026   15.955170    5.981253 C.3       2 ISOPROPYL   -0.056008 
     26 C26         5.813773   17.635502    5.014471 C.3       2 ISOPROPYL   -0.056008 
     27 O27         7.244198   13.140342    8.742953 O.3       1 AMINO      -0.194883 
     28 C28         9.331198   15.710968    3.618242 C.ar      2 ISOPROPYL   -0.061742 
     29 C29        10.646005   16.098355    3.349895 C.ar      2 ISOPROPYL   -0.061501 
     30 C30        11.595047   16.110083    4.376159 C.ar      2 ISOPROPYL   -0.058572 
     31 H1         13.260692   15.963267    6.409947 H         2 ISOPROPYL    0.031407 
     32 C2         14.118786   20.240675    7.938494 C.3       2 ISOPROPYL   -0.060022 
     33 C3         14.888754   17.902964    7.350733 C.3       2 ISOPROPYL   -0.060022 
     34 S34         5.864621   12.712563    9.170260 S.o2      1 AMINO       0.134110 
     35 O35         5.245211   12.121795    7.999449 O.2       1 AMINO      -0.140052 
     36 O36         6.043144   11.862673   10.330553 O.2       1 AMINO      -0.140052 
     37 C37         4.813966   14.056360    9.684497 C.ar      1 AMINO       0.205942 
     38 C38         3.440479   14.019862    9.429449 C.ar      1 AMINO      -0.015546 
     39 C39         2.647142   15.109287    9.798630 C.ar      1 AMINO      -0.056957 
     40 C40         3.243031   16.206159   10.426538 C.ar      1 AMINO      -0.043468 
     41 C41         4.615330   16.178896   10.690397 C.ar      1 AMINO       0.029821 
     42 N42         5.350755   15.100918   10.350558 N.ar      1 AMINO      -0.234797 
     43 H2         12.238215   14.820761    7.271985 H         2 ISOPROPYL    0.031407 
     44 H3         12.503005   16.536090    8.880748 H         2 ISOPROPYL    0.029641 
     45 H4         10.892645   16.750483    8.216879 H         2 ISOPROPYL    0.029641 
     46 H5         12.376558   18.341949    5.564757 H         2 ISOPROPYL    0.036131 
     47 H6         12.048626   19.952967    6.231172 H         2 ISOPROPYL    0.036131 
     48 H7         13.938519   18.504818    9.174994 H         2 ISOPROPYL    0.032343 
     49 H8          9.622117   15.095568    6.947743 H         2 ISOPROPYL    0.062029 
     50 H9          7.967422   14.986312    5.112851 H         2 ISOPROPYL    0.061766 
     51 H10         8.742534   17.351589    9.570146 H         2 ISOPROPYL    0.063214 
     52 H11         6.061845   14.337819    6.770376 H         2 ISOPROPYL    0.064734 
     53 H12         8.941747   18.332547    4.982621 H         2 ISOPROPYL    0.216929 
     54 H13         9.455924   15.502559   10.977652 H         2 ISOPROPYL    0.027834 
     55 H14         9.581612   13.979135   10.049574 H         2 ISOPROPYL    0.027834 
     56 H15         8.178655   14.258995   11.130217 H         2 ISOPROPYL    0.027834 
     57 H16         5.174926   18.964104    7.459635 H         2 ISOPROPYL    0.023804 
     58 H17         4.180350   17.655543    8.128477 H         2 ISOPROPYL    0.023804 
     59 H18         3.685079   18.503587    6.639375 H         2 ISOPROPYL    0.023804 
     60 H19         3.876303   15.422395    6.878071 H         2 ISOPROPYL    0.023804 
     61 H20         4.619420   15.227215    5.253925 H         2 ISOPROPYL    0.023804 
     62 H21         3.348528   16.418979    5.510113 H         2 ISOPROPYL    0.023804 
     63 H22         4.965527   17.899684    4.364396 H         2 ISOPROPYL    0.023804 
     64 H23         6.437452   16.903149    4.481846 H         2 ISOPROPYL    0.023804 
     65 H24         6.396271   18.552726    5.151621 H         2 ISOPROPYL    0.023804 
     66 H25         8.591012   15.703874    2.824061 H         2 ISOPROPYL    0.061758 
     67 H26        10.930432   16.389128    2.343311 H         2 ISOPROPYL    0.061766 
     68 H27        12.620192   16.371995    4.135366 H         2 ISOPROPYL    0.062029 
     69 H28        13.334996   20.867208    8.390936 H         2 ISOPROPYL    0.023322 
     70 H29        14.223781   20.512804    6.877761 H         2 ISOPROPYL    0.023322 
     71 H30        15.070169   20.487750    8.436335 H         2 ISOPROPYL    0.023322 
     72 H31        14.730777   17.940161    6.263056 H         2 ISOPROPYL    0.023322 
     73 H32        14.902385   16.858500    7.694458 H         2 ISOPROPYL    0.023322 
     74 H33        15.889159   18.312589    7.560877 H         2 ISOPROPYL    0.023322 
     75 H34         2.997334   13.155719    8.946528 H         1 AMINO       0.065303 
     76 H35         1.579917   15.104210    9.598598 H         1 AMINO       0.061908 
     77 H36         2.647592   17.069689   10.706397 H         1 AMINO       0.063267 
     78 H37         5.099413   17.023189   11.170223 H         1 AMINO       0.083004 
@<TRIPOS>BOND
     1    2    1 1    
     2    3    2 1    
     3    4    3 1    
     4    4    5 1    
     5    5    6 1    
     6    6    7 2    
     7    8    7 1    
     8    9    8 1    
     9    4    9 1    
    10   10   32 1    
    11    1   11 ar   
    12   11   12 ar   
    13    8   13 2    
    14    7   14 1    
    15   14   15 1    
    16   15   16 ar   
    17   16   17 ar   
    18   17   18 ar   
    19   19   18 ar   
    20   20   19 ar   
    21   15   20 ar   
    22    6   21 1    
    23   17   22 1    
    24   20   23 1    
    25   23   24 1    
    26   23   25 1    
    27   23   26 1    
    28   27   34 1    
    29   12   28 ar   
    30   29   28 ar   
    31   30   29 ar   
    32    1   30 ar   
    33    2   31 1    
    34   10   33 1    
    35   10    4 1    
    36   34   35 2    
    37   18   27 1    
    38   34   36 2    
    39   34   37 1    
    40   37   38 ar   
    41   38   39 ar   
    42   39   40 ar   
    43   40   41 ar   
    44   41   42 ar   
    45   37   42 ar   
    46    2   43 1    
    47    3   44 1    
    48    3   45 1    
    49    5   46 1    
    50    5   47 1    
    51   10   48 1    
    52   11   49 1    
    53   12   50 1    
    54   16   51 1    
    55   19   52 1    
    56   21   53 1    
    57   22   54 1    
    58   22   55 1    
    59   22   56 1    
    60   24   57 1    
    61   24   58 1    
    62   24   59 1    
    63   25   60 1    
    64   25   61 1    
    65   25   62 1    
    66   26   63 1    
    67   26   64 1    
    68   26   65 1    
    69   28   66 1    
    70   29   67 1    
    71   30   68 1    
    72   32   69 1    
    73   32   70 1    
    74   32   71 1    
    75   33   72 1    
    76   33   73 1    
    77   33   74 1    
    78   38   75 1    
    79   39   76 1    
    80   40   77 1    
    81   41   78 1    
@<TRIPOS>SUBSTRUCTURE
     1 AMINO      27 PERM              0 ****  ****    1  
     2 ISOPROPYL    10 PERM              0 ****  ****    1 ROOT 
@<TRIPOS>NORMAL
@<TRIPOS>FF_PBC
FORCE_FIELD_SETUP_FEATURE Force Field Setup information
v1.0  0 0.000000 0.000000 0.000000 0.000000 0.000000 0.000000 NONE 0 0 0 0 1 0 0 0 0 0 0 0 0
