#	Name:			B56
#	Creating user name:	ccollar
#	Creation time:		Mon Jan 17 13:25:23 2005

#	Modifying user name:	ccollar
#	Modification time:	Mon Jan 17 13:25:51 2005

@<TRIPOS>MOLECULE
B56
   78    81     2     1     0
SMALL
GASTEIGER


@<TRIPOS>ATOM
      1 C1         11.235686   15.786883    5.690293 C.ar      2 ISOPROPYL   -0.047264 
      2 C2         12.273710   15.845438    6.825835 C.3       2 ISOPROPYL   -0.025039 
      3 C3         11.964919   16.861326    7.974729 C.3       2 ISOPROPYL   -0.018536 
      4 C4         12.307214   18.380472    7.769217 C.3       2 ISOPROPYL    0.087645 
      5 C5         11.862981   18.890992    6.371964 C.3       2 ISOPROPYL    0.024946 
      6 C6         10.371137   18.753634    6.272063 C.2       2 ISOPROPYL    0.072142 
      7 C7          9.598542   18.952090    7.349191 C.2       2 ISOPROPYL    0.109797 
      8 C8         10.274684   19.288555    8.617129 C.2       2 ISOPROPYL    0.303213 
      9 O9         11.595222   19.121154    8.790656 O.3       2 ISOPROPYL   -0.303695 
     10 C1         13.803878   18.728197    8.113422 C.3       2 ISOPROPYL   -0.016541 
     11 C11         9.929710   15.359980    5.957016 C.ar      2 ISOPROPYL   -0.058572 
     12 C12         8.977481   15.298522    4.935658 C.ar      2 ISOPROPYL   -0.061501 
     13 O13         9.626588   19.752675    9.540301 O.2       2 ISOPROPYL   -0.258547 
     14 S14         7.805071   18.884336    7.331628 S.3       2 ISOPROPYL   -0.081047 
     15 C15         7.440247   17.219814    7.848586 C.ar      2 ISOPROPYL    0.017060 
     16 C16         8.144797   16.696524    8.938234 C.ar      2 ISOPROPYL   -0.042265 
     17 C17         8.119872   15.332760    9.232638 C.ar      2 ISOPROPYL   -0.017068 
     18 C18         7.325319   14.505141    8.438408 C.ar      2 ISOPROPYL    0.110375 
     19 C19         6.539776   15.054097    7.422658 C.ar      2 ISOPROPYL   -0.024329 
     20 C20         6.464866   16.439097    7.198660 C.ar      2 ISOPROPYL   -0.025729 
     21 O21         9.894767   18.456926    5.055149 O.3       2 ISOPROPYL   -0.362719 
     22 C22         8.955716   14.776749   10.391983 C.3       2 ISOPROPYL   -0.037158 
     23 C23         5.331556   17.040468    6.303755 C.3       2 ISOPROPYL   -0.011542 
     24 C24         4.550448   18.113636    7.123534 C.3       2 ISOPROPYL   -0.056008 
     25 C25         4.267209   15.973201    5.882889 C.3       2 ISOPROPYL   -0.056008 
     26 C26         5.880179   17.655772    4.980463 C.3       2 ISOPROPYL   -0.056008 
     27 O27         7.314200   13.130373    8.656275 O.3       1 AMINO      -0.196071 
     28 C28         9.313212   15.692979    3.638589 C.ar      2 ISOPROPYL   -0.061742 
     29 C29        10.618712   16.102874    3.358304 C.ar      2 ISOPROPYL   -0.061501 
     30 C30        11.578757   16.124352    4.374168 C.ar      2 ISOPROPYL   -0.058572 
     31 H1         13.267397   15.992689    6.391575 H         2 ISOPROPYL    0.031407 
     32 C2         14.119463   20.247462    7.961931 C.3       2 ISOPROPYL   -0.060022 
     33 C3         14.895101   17.914558    7.363040 C.3       2 ISOPROPYL   -0.060022 
     34 S34         6.135356   12.716568    9.490204 S.o2      1 AMINO       0.118185 
     35 O35         6.158421   13.459267   10.736117 O.2       1 AMINO      -0.141511 
     36 O36         4.945319   12.760696    8.662682 O.2       1 AMINO      -0.141511 
     37 C37         6.515088   11.021047    9.844644 C.ar      1 AMINO       0.135450 
     38 C38         7.316067   10.691137   10.940884 C.ar      1 AMINO      -0.031449 
     39 C39         7.619387    9.350095   11.190300 C.ar      1 AMINO      -0.041714 
     40 C40         7.120842    8.366673   10.330974 C.ar      1 AMINO       0.027675 
     41 N41         6.360259    8.710748    9.270887 N.ar      1 AMINO      -0.261289 
     42 C42         6.056867    9.999431    9.008162 C.ar      1 AMINO       0.054846 
     43 H2         12.270350   14.831031    7.258364 H         2 ISOPROPYL    0.031407 
     44 H3         12.505882   16.535479    8.877823 H         2 ISOPROPYL    0.029641 
     45 H4         10.897714   16.751745    8.208324 H         2 ISOPROPYL    0.029641 
     46 H5         12.386618   18.356298    5.571889 H         2 ISOPROPYL    0.036131 
     47 H6         12.055653   19.964482    6.244339 H         2 ISOPROPYL    0.036131 
     48 H7         13.937934   18.503887    9.187609 H         2 ISOPROPYL    0.032343 
     49 H8          9.651916   15.060635    6.959961 H         2 ISOPROPYL    0.062029 
     50 H9          7.976820   14.938898    5.144414 H         2 ISOPROPYL    0.061766 
     51 H10         8.724048   17.354376    9.573103 H         2 ISOPROPYL    0.063214 
     52 H11         5.995048   14.343592    6.818368 H         2 ISOPROPYL    0.064734 
     53 H12         8.955536   18.340169    4.981187 H         2 ISOPROPYL    0.216929 
     54 H13         8.428676   14.972756   11.337386 H         2 ISOPROPYL    0.027834 
     55 H14         9.938428   15.271493   10.419563 H         2 ISOPROPYL    0.027834 
     56 H15         9.119534   13.693525   10.292401 H         2 ISOPROPYL    0.027834 
     57 H16         5.171334   18.968486    7.415092 H         2 ISOPROPYL    0.023804 
     58 H17         4.150723   17.659000    8.043239 H         2 ISOPROPYL    0.023804 
     59 H18         3.707168   18.517672    6.542545 H         2 ISOPROPYL    0.023804 
     60 H19         3.866725   15.446042    6.763123 H         2 ISOPROPYL    0.023804 
     61 H20         4.689191   15.241088    5.177332 H         2 ISOPROPYL    0.023804 
     62 H21         3.412421   16.440900    5.369883 H         2 ISOPROPYL    0.023804 
     63 H22         5.054746   17.902159    4.295017 H         2 ISOPROPYL    0.023804 
     64 H23         6.538778   16.934632    4.475514 H         2 ISOPROPYL    0.023804 
     65 H24         6.435651   18.586645    5.134727 H         2 ISOPROPYL    0.023804 
     66 H25         8.564852   15.678361    2.852212 H         2 ISOPROPYL    0.061758 
     67 H26        10.887421   16.403671    2.350344 H         2 ISOPROPYL    0.061766 
     68 H27        12.596884   16.403744    4.123668 H         2 ISOPROPYL    0.062029 
     69 H28        13.333601   20.870113    8.416128 H         2 ISOPROPYL    0.023322 
     70 H29        14.226697   20.526227    6.903152 H         2 ISOPROPYL    0.023322 
     71 H30        15.069220   20.492916    8.463654 H         2 ISOPROPYL    0.023322 
     72 H31        14.743551   17.962191    6.274836 H         2 ISOPROPYL    0.023322 
     73 H32        14.906106   16.866861    7.696964 H         2 ISOPROPYL    0.023322 
     74 H33        15.894415   18.321799    7.582842 H         2 ISOPROPYL    0.023322 
     75 H34         7.699018   11.470634   11.591178 H         1 AMINO       0.063823 
     76 H35         8.235127    9.074952   12.041088 H         1 AMINO       0.063322 
     77 H36         7.342145    7.319511   10.509746 H         1 AMINO       0.082935 
     78 H37         5.453499   10.236836    8.139455 H         1 AMINO       0.084961 
@<TRIPOS>BOND
     1    2    1 1    
     2    3    2 1    
     3    4    3 1    
     4    4    5 1    
     5    5    6 1    
     6    6    7 2    
     7    8    7 1    
     8    9    8 1    
     9    4    9 1    
    10   10   32 1    
    11    1   11 ar   
    12   11   12 ar   
    13    8   13 2    
    14    7   14 1    
    15   14   15 1    
    16   15   16 ar   
    17   16   17 ar   
    18   17   18 ar   
    19   19   18 ar   
    20   20   19 ar   
    21   15   20 ar   
    22    6   21 1    
    23   17   22 1    
    24   20   23 1    
    25   23   24 1    
    26   23   25 1    
    27   23   26 1    
    28   27   34 1    
    29   12   28 ar   
    30   29   28 ar   
    31   30   29 ar   
    32    1   30 ar   
    33    2   31 1    
    34   10   33 1    
    35   10    4 1    
    36   34   35 2    
    37   18   27 1    
    38   34   36 2    
    39   34   37 1    
    40   37   38 ar   
    41   38   39 ar   
    42   39   40 ar   
    43   40   41 ar   
    44   41   42 ar   
    45   37   42 ar   
    46    2   43 1    
    47    3   44 1    
    48    3   45 1    
    49    5   46 1    
    50    5   47 1    
    51   10   48 1    
    52   11   49 1    
    53   12   50 1    
    54   16   51 1    
    55   19   52 1    
    56   21   53 1    
    57   22   54 1    
    58   22   55 1    
    59   22   56 1    
    60   24   57 1    
    61   24   58 1    
    62   24   59 1    
    63   25   60 1    
    64   25   61 1    
    65   25   62 1    
    66   26   63 1    
    67   26   64 1    
    68   26   65 1    
    69   28   66 1    
    70   29   67 1    
    71   30   68 1    
    72   32   69 1    
    73   32   70 1    
    74   32   71 1    
    75   33   72 1    
    76   33   73 1    
    77   33   74 1    
    78   38   75 1    
    79   39   76 1    
    80   40   77 1    
    81   42   78 1    
@<TRIPOS>SUBSTRUCTURE
     1 AMINO      27 PERM              0 ****  ****    1  
     2 ISOPROPYL    10 PERM              0 ****  ****    1 ROOT 
@<TRIPOS>NORMAL
@<TRIPOS>FF_PBC
FORCE_FIELD_SETUP_FEATURE Force Field Setup information
v1.0  0 0.000000 0.000000 0.000000 0.000000 0.000000 0.000000 NONE 0 0 0 0 1 0 0 0 0 0 0 0 0
