#	Name:			B57
#	Creating user name:	ccollar
#	Creation time:		Mon Jan 17 13:26:19 2005

#	Modifying user name:	ccollar
#	Modification time:	Mon Jan 17 13:26:34 2005

@<TRIPOS>MOLECULE
B57
   82    85     3     1     0
SMALL
GASTEIGER


@<TRIPOS>ATOM
      1 C1         11.239834   15.783521    5.694843 C.ar      2 ISOPROPYL   -0.047169 
      2 C2         12.278637   15.842178    6.829397 C.3       2 ISOPROPYL   -0.025037 
      3 C3         11.969336   16.860795    7.975758 C.3       2 ISOPROPYL   -0.018536 
      4 C4         12.308213   18.380010    7.765182 C.3       2 ISOPROPYL    0.087645 
      5 C5         11.862179   18.885716    6.366701 C.3       2 ISOPROPYL    0.024946 
      6 C6         10.370312   18.747459    6.267457 C.2       2 ISOPROPYL    0.072142 
      7 C7          9.598120   18.948496    7.344389 C.2       2 ISOPROPYL    0.109797 
      8 C8         10.274491   19.287636    8.611566 C.2       2 ISOPROPYL    0.303213 
      9 O9         11.595397   19.122320    8.784872 O.3       2 ISOPROPYL   -0.303695 
     10 C1         13.804535   18.731339    8.107318 C.3       2 ISOPROPYL   -0.016541 
     11 C11         9.933739   15.358742    5.964111 C.ar      2 ISOPROPYL   -0.057102 
     12 C12         8.978272   15.308850    4.945363 C.ar      2 ISOPROPYL   -0.043860 
     13 O13         9.626218   19.752257    9.534371 O.2       2 ISOPROPYL   -0.258547 
     14 S14         7.804542   18.881227    7.326787 S.3       2 ISOPROPYL   -0.081047 
     15 C15         7.438989   17.217634    7.845953 C.ar      2 ISOPROPYL    0.017060 
     16 C16         8.144730   16.694693    8.934989 C.ar      2 ISOPROPYL   -0.042265 
     17 C17         8.120284   15.330893    9.229262 C.ar      2 ISOPROPYL   -0.017068 
     18 C18         7.325885   14.503071    8.435103 C.ar      2 ISOPROPYL    0.110374 
     19 C19         6.538410   15.051998    7.420844 C.ar      2 ISOPROPYL   -0.024329 
     20 C20         6.462021   16.437104    7.198228 C.ar      2 ISOPROPYL   -0.025729 
     21 O21         9.893350   18.447758    5.051362 O.3       2 ISOPROPYL   -0.362719 
     22 C22         8.956526   14.774571   10.388128 C.3       2 ISOPROPYL   -0.037158 
     23 C23         5.325758   17.038320    6.307013 C.3       2 ISOPROPYL   -0.011542 
     24 C24         4.549585   18.114945    7.126948 C.3       2 ISOPROPYL   -0.056008 
     25 C25         4.258193   15.971474    5.893158 C.3       2 ISOPROPYL   -0.056008 
     26 C26         5.870156   17.648870    4.979976 C.3       2 ISOPROPYL   -0.056008 
     27 O27         7.317146   13.128150    8.651512 O.3       1 AMINO      -0.196110 
     28 C28         9.308387   15.712018    3.650607 C.ar      2 ISOPROPYL    0.012914 
     29 C29        10.617354   16.109888    3.365935 C.ar      2 ISOPROPYL   -0.043860 
     30 C30        11.581597   16.119867    4.378029 C.ar      2 ISOPROPYL   -0.057102 
     31 N31         8.319296   15.712194    2.641269 N.3       2 ISOPROPYL   -0.302255 
     32 C2         14.117682   20.250576    7.950773 C.3       2 ISOPROPYL   -0.060022 
     33 C3         14.896583   17.916968    7.358922 C.3       2 ISOPROPYL   -0.060022 
     34 S34         6.138417   12.711561    9.484184 S.o2      1 AMINO       0.116732 
     35 O35         6.159589   13.451445   10.731847 O.2       1 AMINO      -0.141559 
     36 O36         4.948105   12.753307    8.656835 O.2       1 AMINO      -0.141559 
     37 C37         6.532112   11.016252    9.831014 C.ar      1 AMINO       0.117542 
     38 C38         7.334861   10.697917   10.930400 C.ar      1 AMINO      -0.033165 
     39 C39         7.663492    9.365616   11.198140 C.ar      1 AMINO      -0.042473 
     40 C40         7.198134    8.348334   10.359292 C.ar      1 AMINO       0.051887 
     41 C41         6.408256    8.666726    9.250285 C.ar      1 AMINO      -0.042473 
     42 C42         6.080503    9.999634    8.984233 C.ar      1 AMINO      -0.033165 
     43 H1         13.272176   15.988621    6.394485 H         2 ISOPROPYL    0.031407 
     44 H2         12.275218   14.828627    7.263920 H         2 ISOPROPYL    0.031407 
     45 H3         12.511897   16.538388    8.879136 H         2 ISOPROPYL    0.029641 
     46 H4         10.902518   16.750266    8.210932 H         2 ISOPROPYL    0.029641 
     47 H5         12.386355   18.349931    5.567766 H         2 ISOPROPYL    0.036131 
     48 H6         12.053472   19.959093    6.236152 H         2 ISOPROPYL    0.036131 
     49 H7         13.939664   18.510777    9.182152 H         2 ISOPROPYL    0.032343 
     50 H8          9.658328   15.052954    6.965762 H         2 ISOPROPYL    0.062077 
     51 H9          7.976429   14.952347    5.148810 H         2 ISOPROPYL    0.063317 
     52 H10         8.724482   17.352725    9.569242 H         2 ISOPROPYL    0.063214 
     53 H11         5.993563   14.341715    6.816368 H         2 ISOPROPYL    0.064734 
     54 H12         8.953505   18.334699    4.977513 H         2 ISOPROPYL    0.216929 
     55 H13         8.426704   14.964437   11.333219 H         2 ISOPROPYL    0.027834 
     56 H14         9.936920   15.273631   10.419619 H         2 ISOPROPYL    0.027834 
     57 H15         9.125498   13.692529   10.284443 H         2 ISOPROPYL    0.027834 
     58 H16         5.172431   18.970256    7.412738 H         2 ISOPROPYL    0.023804 
     59 H17         4.153699   17.663577    8.049905 H         2 ISOPROPYL    0.023804 
     60 H18         3.704008   18.518004    6.548634 H         2 ISOPROPYL    0.023804 
     61 H19         3.862488   15.445544    6.776286 H         2 ISOPROPYL    0.023804 
     62 H20         4.675444   15.238156    5.186006 H         2 ISOPROPYL    0.023804 
     63 H21         3.400986   16.439184    5.384213 H         2 ISOPROPYL    0.023804 
     64 H22         5.042315   17.899624    4.299055 H         2 ISOPROPYL    0.023804 
     65 H23         6.520192   16.921992    4.472690 H         2 ISOPROPYL    0.023804 
     66 H24         6.433783   18.575567    5.129597 H         2 ISOPROPYL    0.023804 
     67 H25        10.883453   16.410239    2.357937 H         2 ISOPROPYL    0.063317 
     68 H26        12.601469   16.390102    4.124444 H         2 ISOPROPYL    0.062077 
     69 H27         8.590520   15.022084    1.855226 H         2 ISOPROPYL    0.123921 
     70 H28         8.203754   16.706344    2.233369 H         2 ISOPROPYL    0.123921 
     71 H29        13.330937   20.873379    8.403235 H         2 ISOPROPYL    0.023322 
     72 H30        14.224208   20.526141    6.891079 H         2 ISOPROPYL    0.023322 
     73 H31        15.067207   20.499093    8.451430 H         2 ISOPROPYL    0.023322 
     74 H32        14.744296   17.960726    6.270659 H         2 ISOPROPYL    0.023322 
     75 H33        14.909518   16.870419    7.696348 H         2 ISOPROPYL    0.023322 
     76 H34        15.895383   18.326520    7.576737 H         2 ISOPROPYL    0.023322 
     77 H35         7.703909   11.487917   11.576279 H         1 AMINO       0.063766 
     78 H36         8.280693    9.122039   12.057751 H         1 AMINO       0.063090 
     79 C           7.532696    6.974278   10.636870 C.1       3 CN          0.099155 
     80 H37         6.049102    7.879279    8.594432 H         1 AMINO       0.063090 
     81 N           7.801534    5.870496   10.859931 N.1       3 CN         -0.190869 
     82 H38         5.475123   10.246336    8.118269 H         1 AMINO       0.063766 
@<TRIPOS>BOND
     1    2    1 1    
     2    3    2 1    
     3    4    3 1    
     4    4    5 1    
     5    5    6 1    
     6    6    7 2    
     7    8    7 1    
     8    9    8 1    
     9    4    9 1    
    10   10   32 1    
    11    1   11 ar   
    12   11   12 ar   
    13    8   13 2    
    14    7   14 1    
    15   14   15 1    
    16   15   16 ar   
    17   16   17 ar   
    18   17   18 ar   
    19   19   18 ar   
    20   20   19 ar   
    21   15   20 ar   
    22    6   21 1    
    23   17   22 1    
    24   20   23 1    
    25   23   24 1    
    26   23   25 1    
    27   23   26 1    
    28   27   34 1    
    29   12   28 ar   
    30   29   28 ar   
    31   30   29 ar   
    32    1   30 ar   
    33   28   31 1    
    34   10   33 1    
    35   10    4 1    
    36   34   35 2    
    37   18   27 1    
    38   34   36 2    
    39   34   37 1    
    40   37   38 ar   
    41   38   39 ar   
    42   39   40 ar   
    43   40   41 ar   
    44   41   42 ar   
    45   37   42 ar   
    46    2   43 1    
    47    2   44 1    
    48    3   45 1    
    49    3   46 1    
    50    5   47 1    
    51    5   48 1    
    52   10   49 1    
    53   11   50 1    
    54   12   51 1    
    55   16   52 1    
    56   19   53 1    
    57   21   54 1    
    58   22   55 1    
    59   22   56 1    
    60   22   57 1    
    61   24   58 1    
    62   24   59 1    
    63   24   60 1    
    64   25   61 1    
    65   25   62 1    
    66   25   63 1    
    67   26   64 1    
    68   26   65 1    
    69   26   66 1    
    70   29   67 1    
    71   30   68 1    
    72   31   69 1    
    73   31   70 1    
    74   32   71 1    
    75   32   72 1    
    76   32   73 1    
    77   33   74 1    
    78   33   75 1    
    79   33   76 1    
    80   38   77 1    
    81   39   78 1    
    82   79   81 3    
    83   41   80 1    
    84   40   79 1    
    85   42   82 1    
@<TRIPOS>SUBSTRUCTURE
     1 AMINO      27 PERM              0 ****  ****    2  
     2 ISOPROPYL    10 PERM              0 ****  ****    1 ROOT 
     3 CN         79 PERM              0 ****  ****    1  
@<TRIPOS>NORMAL
@<TRIPOS>FF_PBC
FORCE_FIELD_SETUP_FEATURE Force Field Setup information
v1.0  0 0.000000 0.000000 0.000000 0.000000 0.000000 0.000000 NONE 0 0 0 0 1 0 0 0 0 0 0 0 0
