#	Name:			B60
#	Creating user name:	ccollar
#	Creation time:		Mon Jan 17 13:28:36 2005

#	Modifying user name:	ccollar
#	Modification time:	Mon Jan 17 13:28:50 2005

@<TRIPOS>MOLECULE
B60
   88    92     2     1     0
SMALL
GASTEIGER


@<TRIPOS>ATOM
      1 C1         11.224386   15.768723    5.693236 C.ar      2 ISOPROPYL   -0.047169 
      2 C2         12.216242   15.791701    6.870178 C.3       2 ISOPROPYL   -0.025037 
      3 C3         11.929050   16.847059    7.988364 C.3       2 ISOPROPYL   -0.018536 
      4 C4         12.278293   18.358579    7.741289 C.3       2 ISOPROPYL    0.087645 
      5 C5         11.802089   18.846576    6.346233 C.3       2 ISOPROPYL    0.024946 
      6 C6         10.306708   18.724598    6.283859 C.2       2 ISOPROPYL    0.072142 
      7 C7          9.563130   18.947390    7.376604 C.2       2 ISOPROPYL    0.109797 
      8 C8         10.271690   19.292048    8.624403 C.2       2 ISOPROPYL    0.303213 
      9 O9         11.595681   19.121891    8.766371 O.3       2 ISOPROPYL   -0.303695 
     10 C1         13.784379   18.706090    8.042511 C.3       2 ISOPROPYL   -0.016541 
     11 C11         9.881661   15.440656    5.912099 C.ar      2 ISOPROPYL   -0.057102 
     12 C12         8.971869   15.408898    4.851281 C.ar      2 ISOPROPYL   -0.043860 
     13 O13         9.647956   19.765316    9.559622 O.2       2 ISOPROPYL   -0.258547 
     14 S14         7.769588   18.900594    7.404760 S.3       2 ISOPROPYL   -0.081047 
     15 C15         7.414925   17.234849    7.921689 C.ar      2 ISOPROPYL    0.017060 
     16 C16         8.137635   16.701106    8.993886 C.ar      2 ISOPROPYL   -0.042265 
     17 C17         8.132137   15.330179    9.257660 C.ar      2 ISOPROPYL   -0.017068 
     18 C18         7.353438   14.506801    8.441864 C.ar      2 ISOPROPYL    0.110375 
     19 C19         6.557670   15.067574    7.440265 C.ar      2 ISOPROPYL   -0.024329 
     20 C20         6.430001   16.456975    7.285670 C.ar      2 ISOPROPYL   -0.025729 
     21 O21         9.796935   18.416330    5.082983 O.3       2 ISOPROPYL   -0.362719 
     22 C22         8.975547   14.765849   10.407206 C.3       2 ISOPROPYL   -0.037158 
     23 C23         5.233901   17.062503    6.483917 C.3       2 ISOPROPYL   -0.011542 
     24 C24         4.510686   18.124752    7.368677 C.3       2 ISOPROPYL   -0.056008 
     25 C25         4.149640   15.989135    6.136351 C.3       2 ISOPROPYL   -0.056008 
     26 C26         5.686029   17.693162    5.133637 C.3       2 ISOPROPYL   -0.056008 
     27 O27         7.367097   13.126162    8.620524 O.3       1 AMINO      -0.196095 
     28 C28         9.395206   15.716105    3.555035 C.ar      2 ISOPROPYL    0.012914 
     29 C29        10.734899   16.034561    3.326425 C.ar      2 ISOPROPYL   -0.043860 
     30 C30        11.646794   16.042411    4.385562 C.ar      2 ISOPROPYL   -0.057102 
     31 N31         8.484055   15.704124    2.474258 N.3       2 ISOPROPYL   -0.302255 
     32 C2         14.101945   20.220742    7.852279 C.3       2 ISOPROPYL   -0.060022 
     33 C3         14.854729   17.872929    7.283363 C.3       2 ISOPROPYL   -0.060022 
     34 S34         6.199668   12.671313    9.451551 S.o2      1 AMINO       0.117316 
     35 O35         6.347789   13.220932   10.784858 O.2       1 AMINO      -0.141540 
     36 O36         4.985870   12.929192    8.700385 O.2       1 AMINO      -0.141540 
     37 C37         6.457360   10.912548    9.542099 C.ar      1 AMINO       0.125141 
     38 C38         7.768053   10.426798    9.592945 C.ar      1 AMINO      -0.033776 
     39 C39         8.014754    9.051419    9.581900 C.ar      1 AMINO      -0.059843 
     40 C40         6.943923    8.155260    9.540586 C.ar      1 AMINO      -0.061071 
     41 C41         5.632338    8.637588    9.553442 C.ar      1 AMINO      -0.052111 
     42 C42         5.383635   10.014197    9.589074 C.ar      1 AMINO       0.009935 
     43 C43         3.952379   10.496907    9.678902 C.2       1 AMINO      -0.008982 
     44 C44         2.967302   10.032606    8.905741 C.2       1 AMINO      -0.016562 
     45 S45         1.393532   10.794889    9.238182 S.3       1 AMINO      -0.104453 
     46 C46         2.185756   11.771495   10.499015 C.2       1 AMINO      -0.023741 
     47 C47         3.490773   11.520599   10.627515 C.2       1 AMINO      -0.046948 
     48 H1         13.233833   15.866306    6.475490 H         2 ISOPROPYL    0.031407 
     49 H2         12.134071   14.789758    7.323637 H         2 ISOPROPYL    0.031407 
     50 H3         12.475235   16.540861    8.895200 H         2 ISOPROPYL    0.029641 
     51 H4         10.862985   16.752727    8.232753 H         2 ISOPROPYL    0.029641 
     52 H5         12.302100   18.294863    5.542930 H         2 ISOPROPYL    0.036131 
     53 H6         11.999887   19.915901    6.194401 H         2 ISOPROPYL    0.036131 
     54 H7         13.943378   18.504217    9.117767 H         2 ISOPROPYL    0.032343 
     55 H8          9.541384   15.196669    6.909737 H         2 ISOPROPYL    0.062077 
     56 H9          7.937612   15.141350    5.030372 H         2 ISOPROPYL    0.063317 
     57 H10         8.714680   17.355906    9.634749 H         2 ISOPROPYL    0.063214 
     58 H11         6.046392   14.370873    6.791556 H         2 ISOPROPYL    0.064734 
     59 H12         8.853196   18.324389    5.030627 H         2 ISOPROPYL    0.216929 
     60 H13         9.951014   15.274074   10.444346 H         2 ISOPROPYL    0.027834 
     61 H14         9.155607   13.687566   10.288327 H         2 ISOPROPYL    0.027834 
     62 H15         8.445639   14.937591   11.355711 H         2 ISOPROPYL    0.027834 
     63 H16         3.620590   18.524483    6.858973 H         2 ISOPROPYL    0.023804 
     64 H17         5.144769   18.984445    7.613625 H         2 ISOPROPYL    0.023804 
     65 H18         4.188770   17.661825    8.314426 H         2 ISOPROPYL    0.023804 
     66 H19         4.510775   15.277539    5.378408 H         2 ISOPROPYL    0.023804 
     67 H20         3.246091   16.455841    5.714236 H         2 ISOPROPYL    0.023804 
     68 H21         3.842622   15.435888    7.037987 H         2 ISOPROPYL    0.023804 
     69 H22         6.290850   18.597437    5.260922 H         2 ISOPROPYL    0.023804 
     70 H23         4.811268   17.981657    4.530740 H         2 ISOPROPYL    0.023804 
     71 H24         6.270943   16.961125    4.560015 H         2 ISOPROPYL    0.023804 
     72 H25        11.062716   16.274320    2.320471 H         2 ISOPROPYL    0.063317 
     73 H26        12.689023   16.261167    4.176509 H         2 ISOPROPYL    0.062077 
     74 H27         7.803273   16.538677    2.552431 H         2 ISOPROPYL    0.123921 
     75 H28         7.931051   14.775714    2.454314 H         2 ISOPROPYL    0.123921 
     76 H29        15.062522   20.473381    8.329291 H         2 ISOPROPYL    0.023322 
     77 H30        13.327849   20.856282    8.308830 H         2 ISOPROPYL    0.023322 
     78 H31        14.188860   20.476146    6.785735 H         2 ISOPROPYL    0.023322 
     79 H32        15.857829   18.297134    7.446303 H         2 ISOPROPYL    0.023322 
     80 H33        14.660140   17.872896    6.201014 H         2 ISOPROPYL    0.023322 
     81 H34        14.890991   16.840818    7.660798 H         2 ISOPROPYL    0.023322 
     82 H35         8.600930   11.120327    9.637122 H         1 AMINO       0.063748 
     83 H36         9.035115    8.680286    9.603869 H         1 AMINO       0.061815 
     84 H37         7.130758    7.086124    9.502516 H         1 AMINO       0.061777 
     85 H38         4.805743    7.934131    9.543963 H         1 AMINO       0.062419 
     86 H39         3.093907    9.269944    8.138601 H         1 AMINO       0.069934 
     87 H40         1.645330   12.499082   11.103779 H         1 AMINO       0.069341 
     88 H41         4.130917   12.015777   11.355935 H         1 AMINO       0.062890 
@<TRIPOS>BOND
     1    2    1 1    
     2    3    2 1    
     3    4    3 1    
     4    4    5 1    
     5    5    6 1    
     6    6    7 2    
     7    8    7 1    
     8    9    8 1    
     9    4    9 1    
    10   10   32 1    
    11    1   11 ar   
    12   11   12 ar   
    13    8   13 2    
    14    7   14 1    
    15   14   15 1    
    16   15   16 ar   
    17   16   17 ar   
    18   17   18 ar   
    19   19   18 ar   
    20   20   19 ar   
    21   15   20 ar   
    22    6   21 1    
    23   17   22 1    
    24   20   23 1    
    25   23   24 1    
    26   23   25 1    
    27   23   26 1    
    28   27   34 1    
    29   12   28 ar   
    30   29   28 ar   
    31   30   29 ar   
    32    1   30 ar   
    33   28   31 1    
    34   10   33 1    
    35   10    4 1    
    36   34   35 2    
    37   18   27 1    
    38   34   36 2    
    39   34   37 1    
    40   37   38 ar   
    41   38   39 ar   
    42   39   40 ar   
    43   40   41 ar   
    44   41   42 ar   
    45   37   42 ar   
    46   42   43 1    
    47   43   44 2    
    48   44   45 1    
    49   45   46 1    
    50   46   47 2    
    51   43   47 1    
    52    2   48 1    
    53    2   49 1    
    54    3   50 1    
    55    3   51 1    
    56    5   52 1    
    57    5   53 1    
    58   10   54 1    
    59   11   55 1    
    60   12   56 1    
    61   16   57 1    
    62   19   58 1    
    63   21   59 1    
    64   22   60 1    
    65   22   61 1    
    66   22   62 1    
    67   24   63 1    
    68   24   64 1    
    69   24   65 1    
    70   25   66 1    
    71   25   67 1    
    72   25   68 1    
    73   26   69 1    
    74   26   70 1    
    75   26   71 1    
    76   29   72 1    
    77   30   73 1    
    78   31   74 1    
    79   31   75 1    
    80   32   76 1    
    81   32   77 1    
    82   32   78 1    
    83   33   79 1    
    84   33   80 1    
    85   33   81 1    
    86   38   82 1    
    87   39   83 1    
    88   40   84 1    
    89   41   85 1    
    90   44   86 1    
    91   46   87 1    
    92   47   88 1    
@<TRIPOS>SUBSTRUCTURE
     1 AMINO      27 PERM              0 ****  ****    1  
     2 ISOPROPYL    10 PERM              0 ****  ****    1 ROOT 
@<TRIPOS>NORMAL
@<TRIPOS>FF_PBC
FORCE_FIELD_SETUP_FEATURE Force Field Setup information
v1.0  0 0.000000 0.000000 0.000000 0.000000 0.000000 0.000000 NONE 0 0 0 0 1 0 0 0 0 0 0 0 0
