#	Name:			B62
#	Creating user name:	ccollar
#	Creation time:		Mon Jan 17 13:30:21 2005

#	Modifying user name:	ccollar
#	Modification time:	Mon Jan 17 13:30:32 2005

@<TRIPOS>MOLECULE
B62
   79    81     1     1     0
SMALL
GASTEIGER


@<TRIPOS>ATOM
      1 C1         11.213102   15.578994    5.645723 C.ar      1 <1>        -0.047108 
      2 C2         11.941628   15.566955    6.999879 C.3       1 <1>        -0.025037 
      3 C3         11.629151   16.785961    7.919815 C.3       1 <1>        -0.018536 
      4 C4         12.013315   18.243226    7.474778 C.3       1 <1>         0.087645 
      5 C5         11.237193   18.727388    6.217211 C.3       1 <1>         0.024946 
      6 C6          9.768609   18.761107    6.518633 C.2       1 <1>         0.072142 
      7 C7          9.329186   19.046111    7.751887 C.2       1 <1>         0.109797 
      8 C8         10.341296   19.323667    8.790167 C.2       1 <1>         0.303213 
      9 O9         11.651111   19.090448    8.595401 O.3       1 <1>        -0.303695 
     10 C10        13.551921   18.527413    7.314072 C.3       1 <1>        -0.016541 
     11 C11         9.816833   15.661961    5.595529 C.ar      1 <1>        -0.056142 
     12 C12         9.142969   15.735071    4.373385 C.ar      1 <1>        -0.031682 
     13 O13         9.990493   19.797551    9.857775 O.2       1 <1>        -0.258547 
     14 S14         7.594666   19.126612    8.204088 S.3       1 <1>        -0.081047 
     15 C15         7.322971   17.386402    8.424840 C.ar      1 <1>         0.017015 
     16 C16         8.154672   16.686004    9.301560 C.ar      1 <1>        -0.042989 
     17 C17         8.234425   15.292121    9.240739 C.ar      1 <1>        -0.026990 
     18 C18         7.522302   14.628664    8.233736 C.ar      1 <1>         0.052517 
     19 C19         6.592453   15.346758    7.471588 C.ar      1 <1>        -0.034286 
     20 C20         6.315082   16.695702    7.734286 C.ar      1 <1>        -0.026451 
     21 O21         8.963590   18.501841    5.478464 O.3       1 <1>        -0.362719 
     22 C22         9.093249   14.529033   10.258113 C.3       1 <1>        -0.037883 
     23 C23         4.961891   17.337726    7.305950 C.3       1 <1>        -0.011564 
     24 C24         4.379136   18.156290    8.499215 C.3       1 <1>        -0.056009 
     25 C25         3.891853   16.250745    6.959877 C.3       1 <1>        -0.056009 
     26 C26         5.126230   18.245757    6.054205 C.3       1 <1>        -0.056009 
     27 N27         7.749580   13.246818    7.980760 N.am      1 <1>        -0.203959 
     28 C28         9.864303   15.711437    3.174220 C.ar      1 <1>         0.072598 
     29 C29        11.254465   15.584497    3.217676 C.ar      1 <1>        -0.031682 
     30 C30        11.923926   15.500359    4.442072 C.ar      1 <1>        -0.056142 
     31 O31         9.225608   15.809021    1.934443 O.3       1 <1>        -0.359832 
     32 C32        14.401061   17.961982    8.488514 C.3       1 <1>        -0.060022 
     33 C33        14.202956   18.146439    5.951195 C.3       1 <1>        -0.060022 
     34 S34         6.705924   12.301119    7.168832 S.o2      1 <1>         0.119915 
     35 O35         6.951000   12.526918    5.758419 O.2       1 <1>        -0.135243 
     36 O36         5.382082   12.579975    7.688092 O.2       1 <1>        -0.135243 
     37 N37         6.990759   10.722015    7.452701 N.am      1 <1>        -0.235384 
     38 C38         5.583558    9.456862    9.009290 C.3       1 <1>        -0.048218 
     39 C39         6.941688   10.168798    8.799685 C.3       1 <1>         0.024956 
     40 H1         13.025565   15.444741    6.881457 H         1 <1>         0.031407 
     41 H2         11.587913   14.654119    7.507593 H         1 <1>         0.031407 
     42 H3         12.106183   16.592553    8.893093 H         1 <1>         0.029641 
     43 H4         10.553167   16.755334    8.121085 H         1 <1>         0.029641 
     44 H5         11.426218   18.084018    5.349353 H         1 <1>         0.036131 
     45 H6         11.532806   19.754275    5.953390 H         1 <1>         0.036131 
     46 H7         13.656296   19.627000    7.368265 H         1 <1>         0.032343 
     47 H8          9.238864   15.670404    6.508795 H         1 <1>         0.062108 
     48 H9          8.060350   15.810553    4.366603 H         1 <1>         0.064328 
     49 H10         8.748070   17.235871   10.024427 H         1 <1>         0.063191 
     50 H11         6.092576   14.840667    6.660039 H         1 <1>         0.063974 
     51 H12         8.030960   18.510780    5.649544 H         1 <1>         0.216929 
     52 H13         9.311667   15.145969   11.142745 H         1 <1>         0.027812 
     53 H14        10.045441   14.242444    9.787444 H         1 <1>         0.027812 
     54 H15         8.564311   13.625959   10.598450 H         1 <1>         0.027812 
     55 H16         3.387959   18.566014    8.251205 H         1 <1>         0.023804 
     56 H17         5.009925   19.007686    8.780751 H         1 <1>         0.023804 
     57 H18         4.273765   17.504404    9.380275 H         1 <1>         0.023804 
     58 H19         4.112339   15.743596    6.008880 H         1 <1>         0.023804 
     59 H20         2.892544   16.698098    6.844258 H         1 <1>         0.023804 
     60 H21         3.831202   15.498710    7.762219 H         1 <1>         0.023804 
     61 H22         5.716398   19.145165    6.269034 H         1 <1>         0.023804 
     62 H23         4.142456   18.582489    5.692551 H         1 <1>         0.023804 
     63 H24         5.617995   17.682657    5.246234 H         1 <1>         0.023804 
     64 H25         8.603504   12.814528    8.264130 H         1 <1>         0.174997 
     65 H26        11.812951   15.550659    2.288155 H         1 <1>         0.064328 
     66 H27        13.000457   15.370832    4.444608 H         1 <1>         0.062108 
     67 H28         8.286297   15.944486    1.987118 H         1 <1>         0.217313 
     68 H29        15.426999   18.360959    8.448959 H         1 <1>         0.023322 
     69 H30        14.466185   16.865566    8.434671 H         1 <1>         0.023322 
     70 H31        13.965796   18.247671    9.458737 H         1 <1>         0.023322 
     71 H32        13.721584   18.657521    5.104788 H         1 <1>         0.023322 
     72 H33        14.175214   17.068397    5.769421 H         1 <1>         0.023322 
     73 H34        15.261455   18.451200    5.948392 H         1 <1>         0.023322 
     74 H35         7.137237   10.099547    6.681904 H         1 <1>         0.168518 
     75 H36         5.523214    9.035197   10.024965 H         1 <1>         0.024513 
     76 H37         5.468033    8.641349    8.278727 H         1 <1>         0.024513 
     77 H38         4.758435   10.172840    8.872586 H         1 <1>         0.024513 
     78 H39         7.052430   10.972788    9.546076 H         1 <1>         0.047300 
     79 H40         7.768307    9.453291    8.945126 H         1 <1>         0.047300 
@<TRIPOS>BOND
     1    2    1 1    
     2    2    3 1    
     3    3    4 1    
     4    4    5 1    
     5    5    6 1    
     6    6    7 2    
     7    7    8 1    
     8    8    9 1    
     9    4    9 1    
    10    4   10 1    
    11    1   11 ar   
    12   11   12 ar   
    13    8   13 2    
    14    7   14 1    
    15   14   15 1    
    16   15   16 ar   
    17   16   17 ar   
    18   17   18 ar   
    19   18   19 ar   
    20   19   20 ar   
    21   15   20 ar   
    22    6   21 1    
    23   17   22 1    
    24   20   23 1    
    25   23   24 1    
    26   23   25 1    
    27   23   26 1    
    28   18   27 1    
    29   12   28 ar   
    30   28   29 ar   
    31   29   30 ar   
    32    1   30 ar   
    33   28   31 1    
    34   10   32 1    
    35   10   33 1    
    36   27   34 1    
    37   34   35 2    
    38   34   36 2    
    39   34   37 1    
    40   39   38 1    
    41   37   39 1    
    42    2   40 1    
    43    2   41 1    
    44    3   42 1    
    45    3   43 1    
    46    5   44 1    
    47    5   45 1    
    48   10   46 1    
    49   11   47 1    
    50   12   48 1    
    51   16   49 1    
    52   19   50 1    
    53   21   51 1    
    54   22   52 1    
    55   22   53 1    
    56   22   54 1    
    57   24   55 1    
    58   24   56 1    
    59   24   57 1    
    60   25   58 1    
    61   25   59 1    
    62   25   60 1    
    63   26   61 1    
    64   26   62 1    
    65   26   63 1    
    66   27   64 1    
    67   29   65 1    
    68   30   66 1    
    69   31   67 1    
    70   32   68 1    
    71   32   69 1    
    72   32   70 1    
    73   33   71 1    
    74   33   72 1    
    75   33   73 1    
    76   37   74 1    
    77   38   75 1    
    78   38   76 1    
    79   38   77 1    
    80   39   78 1    
    81   39   79 1    
@<TRIPOS>SUBSTRUCTURE
     1 ****        2 TEMP              0 ****  ****    0 ROOT 
@<TRIPOS>NORMAL
@<TRIPOS>FF_PBC
FORCE_FIELD_SETUP_FEATURE Force Field Setup information
v1.0  0 0.000000 0.000000 0.000000 0.000000 0.000000 0.000000 NONE 0 0 0 0 1 0 0 0 0 0 0 0 0
