#	Name:			B63
#	Creating user name:	ccollar
#	Creation time:		Mon Jan 17 13:31:05 2005

#	Modifying user name:	ccollar
#	Modification time:	Mon Jan 17 13:31:17 2005

@<TRIPOS>MOLECULE
B63
   78    80     1     1     0
SMALL
GASTEIGER


@<TRIPOS>ATOM
      1 C1         11.209465   15.577883    5.640086 C.ar      1 <1>        -0.047264 
      2 C2         11.933375   15.563014    6.996708 C.3       1 <1>        -0.025039 
      3 C3         11.620217   16.781242    7.917351 C.3       1 <1>        -0.018536 
      4 C4         12.009523   18.238617    7.477164 C.3       1 <1>         0.087645 
      5 C5         11.237848   18.728515    6.218971 C.3       1 <1>         0.024946 
      6 C6          9.768701   18.767154    6.517014 C.2       1 <1>         0.072142 
      7 C7          9.326976   19.047138    7.750544 C.2       1 <1>         0.109797 
      8 C8         10.337221   19.318328    8.792302 C.2       1 <1>         0.303213 
      9 O9         11.646943   19.083392    8.599506 O.3       1 <1>        -0.303695 
     10 C10        13.549274   18.519197    7.321459 C.3       1 <1>        -0.016541 
     11 C11         9.813138   15.662413    5.586232 C.ar      1 <1>        -0.058572 
     12 C12         9.145529   15.736221    4.360985 C.ar      1 <1>        -0.061501 
     13 O13         9.985024   19.788857    9.860945 O.2       1 <1>        -0.258547 
     14 S14         7.591554   19.128532    8.199036 S.3       1 <1>        -0.081047 
     15 C15         7.321545   17.388590    8.425602 C.ar      1 <1>         0.017015 
     16 C16         8.154635   16.692096    9.304211 C.ar      1 <1>        -0.042989 
     17 C17         8.237202   15.298257    9.247254 C.ar      1 <1>        -0.026990 
     18 C18         7.521721   14.630241    8.245930 C.ar      1 <1>         0.052517 
     19 C19         6.590794   15.344304    7.481579 C.ar      1 <1>        -0.034286 
     20 C20         6.313835   16.694679    7.737762 C.ar      1 <1>        -0.026451 
     21 O21         8.965519   18.517241    5.473287 O.3       1 <1>        -0.362719 
     22 C22         9.101881   14.538839   10.262316 C.3       1 <1>        -0.037883 
     23 C23         4.961048   17.335092    7.305531 C.3       1 <1>        -0.011564 
     24 C24         4.376160   18.156314    8.495909 C.3       1 <1>        -0.056009 
     25 C25         3.891840   16.247096    6.960091 C.3       1 <1>        -0.056009 
     26 C26         5.126896   18.240101    6.051757 C.3       1 <1>        -0.056009 
     27 N27         7.745915   13.246692    8.001191 N.am      1 <1>        -0.203959 
     28 C28         9.873213   15.708866    3.168988 C.ar      1 <1>        -0.061742 
     29 C29        11.264219   15.583327    3.210193 C.ar      1 <1>        -0.061501 
     30 C30        11.925704   15.499897    4.439110 C.ar      1 <1>        -0.058572 
     31 H1         13.017436   15.438453    6.882193 H         1 <1>         0.031407 
     32 C32        14.393448   17.949518    8.497433 C.3       1 <1>        -0.060022 
     33 C33        14.203479   18.138836    5.959950 C.3       1 <1>        -0.060022 
     34 S34         6.679065   12.292890    7.231737 S.o2      1 <1>         0.119915 
     35 O35         6.902375   12.471074    5.811051 O.2       1 <1>        -0.135243 
     36 O36         5.365888   12.591675    7.766822 O.2       1 <1>        -0.135243 
     37 N37         6.979499   10.728791    7.572402 N.am      1 <1>        -0.235384 
     38 C38         5.588026    9.507951    9.177166 C.3       1 <1>        -0.048218 
     39 C39         6.938878   10.224589    8.938759 C.3       1 <1>         0.024956 
     40 H2         11.575770   14.650207    7.501705 H         1 <1>         0.031407 
     41 H3         12.092661   16.584792    8.892275 H         1 <1>         0.029641 
     42 H4         10.543309   16.752601    8.113470 H         1 <1>         0.029641 
     43 H5         11.425809   18.084949    5.350929 H         1 <1>         0.036131 
     44 H6         11.538030   19.754533    5.957055 H         1 <1>         0.036131 
     45 H7         13.656063   19.618439    7.377851 H         1 <1>         0.032343 
     46 H8          9.230781   15.671381    6.496778 H         1 <1>         0.062029 
     47 H9          8.062754   15.815910    4.336945 H         1 <1>         0.061766 
     48 H10         8.747197   17.244717   10.025608 H         1 <1>         0.063191 
     49 H11         6.090541   14.832541    6.673621 H         1 <1>         0.063974 
     50 H12         8.032568   18.521854    5.642510 H         1 <1>         0.216929 
     51 H13        10.053426   14.255090    9.788648 H         1 <1>         0.027812 
     52 H14         8.577254   13.634019   10.604718 H         1 <1>         0.027812 
     53 H15         9.320963   15.157319   11.145697 H         1 <1>         0.027812 
     54 H16         4.269165   17.506423    9.378234 H         1 <1>         0.023804 
     55 H17         3.385455   18.565495    8.245169 H         1 <1>         0.023804 
     56 H18         5.006574   19.008240    8.776715 H         1 <1>         0.023804 
     57 H19         4.114676   15.737527    6.010921 H         1 <1>         0.023804 
     58 H20         2.892711   16.693970    6.841064 H         1 <1>         0.023804 
     59 H21         3.829416   15.497185    7.764263 H         1 <1>         0.023804 
     60 H22         5.714747   19.141245    6.265408 H         1 <1>         0.023804 
     61 H23         4.143513   18.574148    5.686592 H         1 <1>         0.023804 
     62 H24         5.621787   17.675656    5.246633 H         1 <1>         0.023804 
     63 H25         8.609174   12.820195    8.264731 H         1 <1>         0.174997 
     64 H26         9.359590   15.783012    2.215396 H         1 <1>         0.061758 
     65 H27        11.831719   15.549351    2.285138 H         1 <1>         0.061766 
     66 H28        13.002195   15.370891    4.447445 H         1 <1>         0.062029 
     67 H29        15.420610   18.345652    8.461411 H         1 <1>         0.023322 
     68 H30        14.455605   16.853010    8.442093 H         1 <1>         0.023322 
     69 H31        13.956220   18.234831    9.466875 H         1 <1>         0.023322 
     70 H32        15.262087   18.443229    5.959918 H         1 <1>         0.023322 
     71 H33        13.724264   18.650373    5.112618 H         1 <1>         0.023322 
     72 H34        14.175981   17.060888    5.777645 H         1 <1>         0.023322 
     73 H35         7.132650   10.080508    6.824550 H         1 <1>         0.168518 
     74 H36         5.478791    8.665299    8.477045 H         1 <1>         0.024513 
     75 H37         4.755854   10.210665    9.016405 H         1 <1>         0.024513 
     76 H38         5.533925    9.123057   10.207669 H         1 <1>         0.024513 
     77 H39         7.772468    9.522530    9.107970 H         1 <1>         0.047300 
     78 H40         7.043785   11.056183    9.655193 H         1 <1>         0.047300 
@<TRIPOS>BOND
     1    2    1 1    
     2    2    3 1    
     3    3    4 1    
     4    4    5 1    
     5    5    6 1    
     6    6    7 2    
     7    7    8 1    
     8    8    9 1    
     9    4    9 1    
    10    4   10 1    
    11    1   11 ar   
    12   11   12 ar   
    13    8   13 2    
    14    7   14 1    
    15   14   15 1    
    16   15   16 ar   
    17   16   17 ar   
    18   17   18 ar   
    19   18   19 ar   
    20   19   20 ar   
    21   15   20 ar   
    22    6   21 1    
    23   17   22 1    
    24   20   23 1    
    25   23   24 1    
    26   23   25 1    
    27   23   26 1    
    28   18   27 1    
    29   12   28 ar   
    30   28   29 ar   
    31   29   30 ar   
    32    1   30 ar   
    33    2   31 1    
    34   10   32 1    
    35   10   33 1    
    36   27   34 1    
    37   34   35 2    
    38   34   36 2    
    39   34   37 1    
    40   39   38 1    
    41   37   39 1    
    42    2   40 1    
    43    3   41 1    
    44    3   42 1    
    45    5   43 1    
    46    5   44 1    
    47   10   45 1    
    48   11   46 1    
    49   12   47 1    
    50   16   48 1    
    51   19   49 1    
    52   21   50 1    
    53   22   51 1    
    54   22   52 1    
    55   22   53 1    
    56   24   54 1    
    57   24   55 1    
    58   24   56 1    
    59   25   57 1    
    60   25   58 1    
    61   25   59 1    
    62   26   60 1    
    63   26   61 1    
    64   26   62 1    
    65   27   63 1    
    66   28   64 1    
    67   29   65 1    
    68   30   66 1    
    69   32   67 1    
    70   32   68 1    
    71   32   69 1    
    72   33   70 1    
    73   33   71 1    
    74   33   72 1    
    75   37   73 1    
    76   38   74 1    
    77   38   75 1    
    78   38   76 1    
    79   39   77 1    
    80   39   78 1    
@<TRIPOS>SUBSTRUCTURE
     1 ****        2 TEMP              0 ****  ****    0 ROOT 
@<TRIPOS>NORMAL
@<TRIPOS>FF_PBC
FORCE_FIELD_SETUP_FEATURE Force Field Setup information
v1.0  0 0.000000 0.000000 0.000000 0.000000 0.000000 0.000000 NONE 0 0 0 0 1 0 0 0 0 0 0 0 0
