#	Name:			B64
#	Creating user name:	ccollar
#	Creation time:		Mon Jan 17 13:31:56 2005

#	Modifying user name:	ccollar
#	Modification time:	Mon Jan 17 13:32:16 2005

@<TRIPOS>MOLECULE
B64
   78    80     1     1     0
SMALL
GASTEIGER


@<TRIPOS>ATOM
      1 C1         11.239312   15.615424    5.676155 C.ar      1 <1>        -0.047108 
      2 C2         12.053367   15.636330    6.980382 C.3       1 <1>        -0.025037 
      3 C3         11.736657   16.844109    7.913008 C.3       1 <1>        -0.018536 
      4 C4         12.085378   18.309658    7.464580 C.3       1 <1>         0.087645 
      5 C5         11.286496   18.771036    6.211105 C.3       1 <1>         0.024946 
      6 C6          9.811391   18.784460    6.520604 C.2       1 <1>         0.072142 
      7 C7          9.400227   19.054684    7.761350 C.2       1 <1>         0.109797 
      8 C8         10.405780   19.339494    8.801434 C.2       1 <1>         0.303213 
      9 O9         11.718386   19.142670    8.593941 O.3       1 <1>        -0.303695 
     10 C10        13.616445   18.629368    7.289711 C.3       1 <1>        -0.016541 
     11 C11         9.841975   15.560433    5.724993 C.ar      1 <1>        -0.056142 
     12 C12         9.078438   15.600807    4.555366 C.ar      1 <1>        -0.031682 
     13 O13        10.047372   19.786224    9.878141 O.2       1 <1>        -0.258547 
     14 S14         7.660804   19.100494    8.169233 S.3       1 <1>        -0.081047 
     15 C15         7.384513   17.350889    8.287769 C.ar      1 <1>         0.017060 
     16 C16         8.144772   16.643589    9.224517 C.ar      1 <1>        -0.042264 
     17 C17         8.171406   15.248403    9.233052 C.ar      1 <1>        -0.017023 
     18 C18         7.395711   14.571706    8.290215 C.ar      1 <1>         0.111692 
     19 C19         6.597991   15.288025    7.394630 C.ar      1 <1>        -0.024284 
     20 C20         6.449897   16.682662    7.473652 C.ar      1 <1>        -0.025728 
     21 O21         8.925131   18.544892    5.545464 O.3       1 <1>        -0.362719 
     22 C22         9.045474   14.502439   10.248261 C.3       1 <1>        -0.037157 
     23 C23         5.288982   17.401903    6.712712 C.3       1 <1>        -0.011542 
     24 C24         4.464375   18.264332    7.718271 C.3       1 <1>        -0.056008 
     25 C25         4.267483   16.396349    6.084170 C.3       1 <1>        -0.056008 
     26 C26         5.819679   18.278395    5.539399 C.3       1 <1>        -0.056008 
     27 O27         7.419689   13.181031    8.234584 O.3       1 <1>        -0.184301 
     28 C28         9.711543   15.693952    3.310632 C.ar      1 <1>         0.072598 
     29 C29        11.107160   15.700094    3.253934 C.ar      1 <1>        -0.031682 
     30 C30        11.867837   15.641932    4.425504 C.ar      1 <1>        -0.056142 
     31 O31         8.979226   15.780385    2.123216 O.3       1 <1>        -0.359832 
     32 C32        14.491459   18.069440    8.447712 C.3       1 <1>        -0.060022 
     33 C33        14.265186   18.283709    5.915659 C.3       1 <1>        -0.060022 
     34 S34         6.265042   12.571234    8.979279 S.o2      1 <1>         0.168844 
     35 O35         5.065160   12.860117    8.218360 O.2       1 <1>        -0.126284 
     36 O36         6.329833   13.051035   10.346163 O.2       1 <1>        -0.126284 
     37 N37         6.376984   10.940120    9.062855 N.am      1 <1>        -0.220586 
     38 C38         5.306678   10.177793    9.694074 C.3       1 <1>         0.019709 
     39 C39         7.562317   10.303846    8.503723 C.3       1 <1>         0.019709 
     40 H1         13.131597   15.559035    6.795279 H         1 <1>         0.031407 
     41 H2         11.770728   14.711600    7.511224 H         1 <1>         0.031407 
     42 H3         12.238813   16.656715    8.874628 H         1 <1>         0.029641 
     43 H4         10.664733   16.789955    8.136935 H         1 <1>         0.029641 
     44 H5         11.512622   18.121874    5.358046 H         1 <1>         0.036131 
     45 H6         11.561541   19.801900    5.940373 H         1 <1>         0.036131 
     46 H7         13.696559   19.730337    7.356846 H         1 <1>         0.032343 
     47 H8          9.336812   15.482537    6.677546 H         1 <1>         0.062108 
     48 H9          7.996508   15.560377    4.624108 H         1 <1>         0.064328 
     49 H10         8.731673   17.190133    9.955633 H         1 <1>         0.063214 
     50 H11         6.103335   14.700922    6.634899 H         1 <1>         0.064735 
     51 H12         9.292228   18.406964    4.679106 H         1 <1>         0.216929 
     52 H13        10.028664   14.991144   10.324378 H         1 <1>         0.027834 
     53 H14         9.204720   13.453161    9.958796 H         1 <1>         0.027834 
     54 H15         8.553190   14.530448   11.231582 H         1 <1>         0.027834 
     55 H16         4.096394   17.626431    8.536767 H         1 <1>         0.023804 
     56 H17         3.596429   18.726987    7.223886 H         1 <1>         0.023804 
     57 H18         5.041869   19.082081    8.163135 H         1 <1>         0.023804 
     58 H19         4.710636   15.838770    5.244953 H         1 <1>         0.023804 
     59 H20         3.390093   16.920718    5.674672 H         1 <1>         0.023804 
     60 H21         3.899054   15.686185    6.841177 H         1 <1>         0.023804 
     61 H22         6.387731   19.151755    5.878003 H         1 <1>         0.023804 
     62 H23         4.984399   18.662446    4.933936 H         1 <1>         0.023804 
     63 H24         6.466900   17.673489    4.887205 H         1 <1>         0.023804 
     64 H25        11.598381   15.750070    2.287815 H         1 <1>         0.064328 
     65 H26        12.949327   15.617538    4.351663 H         1 <1>         0.062108 
     66 H27         8.035911   15.767496    2.240220 H         1 <1>         0.217313 
     67 H28        15.507566   18.492299    8.402744 H         1 <1>         0.023322 
     68 H29        14.580895   16.975501    8.378228 H         1 <1>         0.023322 
     69 H30        14.060733   18.332888    9.426238 H         1 <1>         0.023322 
     70 H31        15.317564   18.609061    5.911450 H         1 <1>         0.023322 
     71 H32        13.769802   18.801182    5.081238 H         1 <1>         0.023322 
     72 H33        14.258069   17.208786    5.713239 H         1 <1>         0.023322 
     73 H34         4.869138    9.479380    8.965067 H         1 <1>         0.044240 
     74 H35         4.509248   10.839211   10.066212 H         1 <1>         0.044240 
     75 H36         5.708933    9.605615   10.543503 H         1 <1>         0.044240 
     76 H37         7.630913   10.530659    7.429101 H         1 <1>         0.044240 
     77 H38         7.530486    9.211005    8.630597 H         1 <1>         0.044240 
     78 H39         8.461016   10.690000    9.008029 H         1 <1>         0.044240 
@<TRIPOS>BOND
     1    2    1 1    
     2    2    3 1    
     3    3    4 1    
     4    4    5 1    
     5    5    6 1    
     6    6    7 2    
     7    7    8 1    
     8    8    9 1    
     9    4    9 1    
    10    4   10 1    
    11    1   11 ar   
    12   11   12 ar   
    13    8   13 2    
    14    7   14 1    
    15   14   15 1    
    16   15   16 ar   
    17   16   17 ar   
    18   17   18 ar   
    19   18   19 ar   
    20   19   20 ar   
    21   15   20 ar   
    22    6   21 1    
    23   17   22 1    
    24   20   23 1    
    25   23   24 1    
    26   23   25 1    
    27   23   26 1    
    28   18   27 1    
    29   12   28 ar   
    30   28   29 ar   
    31   29   30 ar   
    32    1   30 ar   
    33   28   31 1    
    34   10   32 1    
    35   10   33 1    
    36   27   34 1    
    37   34   35 2    
    38   34   36 2    
    39   34   37 1    
    40   37   38 1    
    41   37   39 1    
    42    2   40 1    
    43    2   41 1    
    44    3   42 1    
    45    3   43 1    
    46    5   44 1    
    47    5   45 1    
    48   10   46 1    
    49   11   47 1    
    50   12   48 1    
    51   16   49 1    
    52   19   50 1    
    53   21   51 1    
    54   22   52 1    
    55   22   53 1    
    56   22   54 1    
    57   24   55 1    
    58   24   56 1    
    59   24   57 1    
    60   25   58 1    
    61   25   59 1    
    62   25   60 1    
    63   26   61 1    
    64   26   62 1    
    65   26   63 1    
    66   29   64 1    
    67   30   65 1    
    68   31   66 1    
    69   32   67 1    
    70   32   68 1    
    71   32   69 1    
    72   33   70 1    
    73   33   71 1    
    74   33   72 1    
    75   38   73 1    
    76   38   74 1    
    77   38   75 1    
    78   39   76 1    
    79   39   77 1    
    80   39   78 1    
@<TRIPOS>SUBSTRUCTURE
     1 ****        2 TEMP              0 ****  ****    0 ROOT 
@<TRIPOS>NORMAL
@<TRIPOS>FF_PBC
FORCE_FIELD_SETUP_FEATURE Force Field Setup information
v1.0  0 0.000000 0.000000 0.000000 0.000000 0.000000 0.000000 NONE 0 0 0 0 1 0 0 0 0 0 0 0 0
