#	Name:			B65
#	Creating user name:	ccollar
#	Creation time:		Mon Jan 17 13:32:52 2005

#	Modifying user name:	ccollar
#	Modification time:	Mon Jan 17 13:33:07 2005

@<TRIPOS>MOLECULE
B65
   78    80     1     1     0
SMALL
GASTEIGER


@<TRIPOS>ATOM
      1 C1         11.214103   15.583747    5.656070 C.ar      1 <1>        -0.047108 
      2 C2         11.946445   15.564029    7.007870 C.3       1 <1>        -0.025037 
      3 C3         11.635869   16.784497    7.925572 C.3       1 <1>        -0.018536 
      4 C4         12.030864   18.240704    7.486614 C.3       1 <1>         0.087645 
      5 C5         11.279412   18.727794    6.215365 C.3       1 <1>         0.024946 
      6 C6          9.805264   18.758359    6.487773 C.2       1 <1>         0.072142 
      7 C7          9.340843   19.038435    7.712951 C.2       1 <1>         0.109797 
      8 C8         10.333246   19.320070    8.769472 C.2       1 <1>         0.303213 
      9 O9         11.647134   19.088468    8.599689 O.3       1 <1>        -0.303695 
     10 C10        13.572914   18.520885    7.354178 C.3       1 <1>        -0.016541 
     11 C11         9.816317   15.644186    5.611621 C.ar      1 <1>        -0.056142 
     12 C12         9.139801   15.740790    4.392444 C.ar      1 <1>        -0.031682 
     13 O13         9.961580   19.795778    9.829148 O.2       1 <1>        -0.258547 
     14 S14         7.596852   19.107588    8.132130 S.3       1 <1>        -0.081047 
     15 C15         7.323989   17.369778    8.380222 C.ar      1 <1>         0.017060 
     16 C16         8.168636   16.687825    9.260960 C.ar      1 <1>        -0.042264 
     17 C17         8.263896   15.295120    9.219051 C.ar      1 <1>        -0.017023 
     18 C18         7.461661   14.605804    8.306887 C.ar      1 <1>         0.111685 
     19 C19         6.536666   15.300677    7.523178 C.ar      1 <1>        -0.024284 
     20 C20         6.304189   16.671495    7.710655 C.ar      1 <1>        -0.025728 
     21 O21         9.021862   18.501349    5.430858 O.3       1 <1>        -0.362719 
     22 C22         9.236286   14.545644   10.137509 C.3       1 <1>        -0.037157 
     23 C23         4.974718   17.329046    7.229416 C.3       1 <1>        -0.011542 
     24 C24         4.371338   18.176912    8.391605 C.3       1 <1>        -0.056008 
     25 C25         3.892568   16.258472    6.869310 C.3       1 <1>        -0.056008 
     26 C26         5.185501   18.210986    5.965301 C.3       1 <1>        -0.056008 
     27 O27         7.586888   13.225503    8.176206 O.3       1 <1>        -0.184447 
     28 C28         9.858783   15.753272    3.191684 C.ar      1 <1>         0.072598 
     29 C29        11.250096   15.637430    3.228908 C.ar      1 <1>        -0.031682 
     30 C30        11.923313   15.535965    4.449888 C.ar      1 <1>        -0.056142 
     31 O31         9.216190   15.875316    1.956170 O.3       1 <1>        -0.359832 
     32 C32        14.399331   17.949553    8.541835 C.3       1 <1>        -0.060022 
     33 C33        14.247121   18.140197    6.002451 C.3       1 <1>        -0.060022 
     34 S34         6.487439   12.483830    8.883266 S.o2      1 <1>         0.166914 
     35 O35         5.293348   12.606285    8.070732 O.2       1 <1>        -0.126464 
     36 O36         6.429777   12.973126   10.246857 O.2       1 <1>        -0.126464 
     37 N37         6.819579   10.891861    8.980727 N.am      1 <1>        -0.228020 
     38 C38         8.624108   10.456713   10.581025 C.3       1 <1>        -0.048198 
     39 C39         8.185596   10.397177    9.098091 C.3       1 <1>         0.025576 
     40 H1         13.029828   15.438963    6.887978 H         1 <1>         0.031407 
     41 H2         11.590139   14.652557    7.516838 H         1 <1>         0.031407 
     42 H3         12.099293   16.587208    8.904491 H         1 <1>         0.029641 
     43 H4         10.557565   16.759143    8.111017 H         1 <1>         0.029641 
     44 H5         11.485706   18.086537    5.350115 H         1 <1>         0.036131 
     45 H6         11.579508   19.755487    5.959858 H         1 <1>         0.036131 
     46 H7         13.679539   19.620011    7.412907 H         1 <1>         0.032343 
     47 H8          9.239861   15.616003    6.526497 H         1 <1>         0.062108 
     48 H9          8.056582   15.806081    4.388543 H         1 <1>         0.064328 
     49 H10         8.763030   17.248706    9.974422 H         1 <1>         0.063214 
     50 H11         6.011362   14.733999    6.767569 H         1 <1>         0.064735 
     51 H12         8.086064   18.513874    5.582172 H         1 <1>         0.216929 
     52 H13         9.633618   13.650822    9.635496 H         1 <1>         0.027834 
     53 H14         8.703820   14.241139   11.050288 H         1 <1>         0.027834 
     54 H15        10.086077   15.186331   10.417070 H         1 <1>         0.027834 
     55 H16         4.225730   17.540593    9.278315 H         1 <1>         0.023804 
     56 H17         3.396564   18.601641    8.106548 H         1 <1>         0.023804 
     57 H18         5.009182   19.020001    8.681657 H         1 <1>         0.023804 
     58 H19         4.138555   15.725168    5.938907 H         1 <1>         0.023804 
     59 H20         2.908947   16.725093    6.704929 H         1 <1>         0.023804 
     60 H21         3.781421   15.527881    7.686010 H         1 <1>         0.023804 
     61 H22         5.768359   19.114930    6.178866 H         1 <1>         0.023804 
     62 H23         4.216564   18.543370    5.561917 H         1 <1>         0.023804 
     63 H24         5.702507   17.629266    5.186880 H         1 <1>         0.023804 
     64 H25        11.806424   15.626590    2.297540 H         1 <1>         0.064328 
     65 H26        13.001241   15.418560    4.448153 H         1 <1>         0.062108 
     66 H27         8.283280   16.047288    2.015308 H         1 <1>         0.217313 
     67 H28        15.426859   18.345910    8.522164 H         1 <1>         0.023322 
     68 H29        14.462518   16.853071    8.484996 H         1 <1>         0.023322 
     69 H30        13.947287   18.233295    9.504949 H         1 <1>         0.023322 
     70 H31        15.307054   18.439412    6.020153 H         1 <1>         0.023322 
     71 H32        13.784351   18.656519    5.148866 H         1 <1>         0.023322 
     72 H33        14.217025   17.062706    5.816883 H         1 <1>         0.023322 
     73 H34         6.062477   10.243917    9.076464 H         1 <1>         0.169173 
     74 H35         7.949624    9.841597   11.196455 H         1 <1>         0.024514 
     75 H36         8.587140   11.493809   10.946930 H         1 <1>         0.024514 
     76 H37         9.652501   10.078838   10.693054 H         1 <1>         0.024514 
     77 H38         8.250546    9.358065    8.732994 H         1 <1>         0.047320 
     78 H39         8.865261   11.011301    8.485258 H         1 <1>         0.047320 
@<TRIPOS>BOND
     1    2    1 1    
     2    2    3 1    
     3    3    4 1    
     4    4    5 1    
     5    5    6 1    
     6    6    7 2    
     7    7    8 1    
     8    8    9 1    
     9    4    9 1    
    10    4   10 1    
    11    1   11 ar   
    12   11   12 ar   
    13    8   13 2    
    14    7   14 1    
    15   14   15 1    
    16   15   16 ar   
    17   16   17 ar   
    18   17   18 ar   
    19   18   19 ar   
    20   19   20 ar   
    21   15   20 ar   
    22    6   21 1    
    23   17   22 1    
    24   20   23 1    
    25   23   24 1    
    26   23   25 1    
    27   23   26 1    
    28   18   27 1    
    29   12   28 ar   
    30   28   29 ar   
    31   29   30 ar   
    32    1   30 ar   
    33   28   31 1    
    34   10   32 1    
    35   10   33 1    
    36   27   34 1    
    37   34   35 2    
    38   34   36 2    
    39   34   37 1    
    40   39   38 1    
    41   37   39 1    
    42    2   40 1    
    43    2   41 1    
    44    3   42 1    
    45    3   43 1    
    46    5   44 1    
    47    5   45 1    
    48   10   46 1    
    49   11   47 1    
    50   12   48 1    
    51   16   49 1    
    52   19   50 1    
    53   21   51 1    
    54   22   52 1    
    55   22   53 1    
    56   22   54 1    
    57   24   55 1    
    58   24   56 1    
    59   24   57 1    
    60   25   58 1    
    61   25   59 1    
    62   25   60 1    
    63   26   61 1    
    64   26   62 1    
    65   26   63 1    
    66   29   64 1    
    67   30   65 1    
    68   31   66 1    
    69   32   67 1    
    70   32   68 1    
    71   32   69 1    
    72   33   70 1    
    73   33   71 1    
    74   33   72 1    
    75   37   73 1    
    76   38   74 1    
    77   38   75 1    
    78   38   76 1    
    79   39   77 1    
    80   39   78 1    
@<TRIPOS>SUBSTRUCTURE
     1 ****        2 TEMP              0 ****  ****    0 ROOT 
@<TRIPOS>NORMAL
@<TRIPOS>FF_PBC
FORCE_FIELD_SETUP_FEATURE Force Field Setup information
v1.0  0 0.000000 0.000000 0.000000 0.000000 0.000000 0.000000 NONE 0 0 0 0 1 0 0 0 0 0 0 0 0
