#	Name:			B67
#	Creating user name:	ccollar
#	Creation time:		Mon Jan 17 13:34:03 2005

#	Modifying user name:	ccollar
#	Modification time:	Mon Jan 17 13:34:23 2005

@<TRIPOS>MOLECULE
B67
   80    82     1     1     0
SMALL
GASTEIGER


@<TRIPOS>ATOM
      1 C1         11.211899   15.578829    5.645687 C.ar      1 <1>        -0.047169 
      2 C2         11.941411   15.564846    6.999183 C.3       1 <1>        -0.025037 
      3 C3         11.628446   16.783309    7.919609 C.3       1 <1>        -0.018536 
      4 C4         12.014966   18.240658    7.476767 C.3       1 <1>         0.087645 
      5 C5         11.243722   18.726933    6.216938 C.3       1 <1>         0.024946 
      6 C6          9.774135   18.762561    6.512758 C.2       1 <1>         0.072142 
      7 C7          9.330266   19.044818    7.745002 C.2       1 <1>         0.109797 
      8 C8         10.338717   19.319846    8.787601 C.2       1 <1>         0.303213 
      9 O9         11.649219   19.086753    8.597100 O.3       1 <1>        -0.303695 
     10 C10        13.554333   18.523814    7.321402 C.3       1 <1>        -0.016541 
     11 C11         9.815037   15.657887    5.599068 C.ar      1 <1>        -0.057102 
     12 C12         9.140994   15.735302    4.377674 C.ar      1 <1>        -0.043860 
     13 O13         9.984176   19.791805    9.854832 O.2       1 <1>        -0.258547 
     14 S14         7.593976   19.125155    8.190550 S.3       1 <1>        -0.081047 
     15 C15         7.322640   17.385535    8.417741 C.ar      1 <1>         0.017015 
     16 C16         8.153109   16.689423    9.299095 C.ar      1 <1>        -0.042989 
     17 C17         8.233841   15.295351    9.244967 C.ar      1 <1>        -0.026990 
     18 C18         7.521686   14.626602    8.241639 C.ar      1 <1>         0.052517 
     19 C19         6.592919   15.340579    7.474422 C.ar      1 <1>        -0.034286 
     20 C20         6.316318   16.691493    7.728026 C.ar      1 <1>        -0.026451 
     21 O21         8.972908   18.508057    5.468549 O.3       1 <1>        -0.362719 
     22 C22         9.093556   14.537261   10.265295 C.3       1 <1>        -0.037883 
     23 C23         4.965178   17.332326    7.291046 C.3       1 <1>        -0.011564 
     24 C24         4.377254   18.155178    8.478806 C.3       1 <1>        -0.056009 
     25 C25         3.896126   16.244819    6.943484 C.3       1 <1>        -0.056009 
     26 C26         5.135255   18.235857    6.036759 C.3       1 <1>        -0.056009 
     27 N27         7.747832   13.243127    7.997258 N.am      1 <1>        -0.203959 
     28 C28         9.862884   15.717327    3.181286 C.ar      1 <1>         0.012914 
     29 C29        11.253327   15.593632    3.216602 C.ar      1 <1>        -0.043860 
     30 C30        11.922534   15.506388    4.441060 C.ar      1 <1>        -0.057102 
     31 N31         9.197966   15.821606    1.938758 N.3       1 <1>        -0.302255 
     32 C32        14.399351   17.956126    8.497719 C.3       1 <1>        -0.060022 
     33 C33        14.209495   18.144116    5.960097 C.3       1 <1>        -0.060022 
     34 S34         6.696241   12.292307    7.203425 S.o2      1 <1>         0.119915 
     35 O35         6.935408   12.489699    5.787802 O.2       1 <1>        -0.135243 
     36 O36         5.375002   12.576305    7.726561 O.2       1 <1>        -0.135243 
     37 N37         7.002400   10.725886    7.528019 N.am      1 <1>        -0.235384 
     38 C38         5.593042    9.471213    9.090458 C.3       1 <1>        -0.048218 
     39 C39         6.941627   10.202579    8.886431 C.3       1 <1>         0.024956 
     40 H1         13.025254   15.442572    6.880294 H         1 <1>         0.031407 
     41 H2         11.587636   14.651628    7.506182 H         1 <1>         0.031407 
     42 H3         12.103048   16.588349    8.893737 H         1 <1>         0.029641 
     43 H4         10.551973   16.753636    8.118383 H         1 <1>         0.029641 
     44 H5         11.434600   18.083601    5.349456 H         1 <1>         0.036131 
     45 H6         11.541600   19.753544    5.954670 H         1 <1>         0.036131 
     46 H7         13.659280   19.623250    7.377458 H         1 <1>         0.032343 
     47 H8          9.237509   15.660110    6.512451 H         1 <1>         0.062077 
     48 H9          8.058549   15.810767    4.358270 H         1 <1>         0.063317 
     49 H10         8.745010   17.242684   10.020569 H         1 <1>         0.063191 
     50 H11         6.093731   14.828814    6.665942 H         1 <1>         0.063974 
     51 H12         8.039727   18.513770    5.636412 H         1 <1>         0.216929 
     52 H13        10.046320   14.250526    9.795828 H         1 <1>         0.027812 
     53 H14         8.566047   13.634472   10.608632 H         1 <1>         0.027812 
     54 H15         9.310695   15.157819   11.147705 H         1 <1>         0.027812 
     55 H16         4.267121   17.506252    9.361458 H         1 <1>         0.023804 
     56 H17         3.387599   18.564818    8.224667 H         1 <1>         0.023804 
     57 H18         5.007386   19.006951    8.760695 H         1 <1>         0.023804 
     58 H19         4.121190   15.734300    5.995340 H         1 <1>         0.023804 
     59 H20         2.897659   16.692315    6.821238 H         1 <1>         0.023804 
     60 H21         3.830814   15.495646    7.748116 H         1 <1>         0.023804 
     61 H22         5.722796   19.137002    6.251242 H         1 <1>         0.023804 
     62 H23         4.153146   18.569982    5.668252 H         1 <1>         0.023804 
     63 H24         5.632259   17.670298    5.233712 H         1 <1>         0.023804 
     64 H25         8.605070   12.814103    8.275726 H         1 <1>         0.174997 
     65 H26        11.810186   15.564844    2.285908 H         1 <1>         0.063317 
     66 H27        12.999313   15.379473    4.442968 H         1 <1>         0.062077 
     67 H28         8.666429   16.760812    1.880420 H         1 <1>         0.123921 
     68 H29         8.506433   15.000112    1.816792 H         1 <1>         0.123921 
     69 H30        15.425667   18.354495    8.462069 H         1 <1>         0.023322 
     70 H31        14.463957   16.859738    8.442398 H         1 <1>         0.023322 
     71 H32        13.961124   18.240667    9.466945 H         1 <1>         0.023322 
     72 H33        15.268206   18.448143    5.961086 H         1 <1>         0.023322 
     73 H34        13.731212   18.656636    5.112808 H         1 <1>         0.023322 
     74 H35        14.181659   17.066332    5.776659 H         1 <1>         0.023322 
     75 H36         7.174446   10.089206    6.774317 H         1 <1>         0.168518 
     76 H37         5.503931    8.637295    8.377152 H         1 <1>         0.024513 
     77 H38         4.757798   10.168944    8.924015 H         1 <1>         0.024513 
     78 H39         5.523645    9.071833   10.114514 H         1 <1>         0.024513 
     79 H40         7.778177    9.505405    9.061158 H         1 <1>         0.047300 
     80 H41         7.026279   11.025102    9.615907 H         1 <1>         0.047300 
@<TRIPOS>BOND
     1    2    1 1    
     2    2    3 1    
     3    3    4 1    
     4    4    5 1    
     5    5    6 1    
     6    6    7 2    
     7    7    8 1    
     8    8    9 1    
     9    4    9 1    
    10    4   10 1    
    11    1   11 ar   
    12   11   12 ar   
    13    8   13 2    
    14    7   14 1    
    15   14   15 1    
    16   15   16 ar   
    17   16   17 ar   
    18   17   18 ar   
    19   18   19 ar   
    20   19   20 ar   
    21   15   20 ar   
    22    6   21 1    
    23   17   22 1    
    24   20   23 1    
    25   23   24 1    
    26   23   25 1    
    27   23   26 1    
    28   18   27 1    
    29   12   28 ar   
    30   28   29 ar   
    31   29   30 ar   
    32    1   30 ar   
    33   28   31 1    
    34   10   32 1    
    35   10   33 1    
    36   27   34 1    
    37   34   35 2    
    38   34   36 2    
    39   34   37 1    
    40   39   38 1    
    41   37   39 1    
    42    2   40 1    
    43    2   41 1    
    44    3   42 1    
    45    3   43 1    
    46    5   44 1    
    47    5   45 1    
    48   10   46 1    
    49   11   47 1    
    50   12   48 1    
    51   16   49 1    
    52   19   50 1    
    53   21   51 1    
    54   22   52 1    
    55   22   53 1    
    56   22   54 1    
    57   24   55 1    
    58   24   56 1    
    59   24   57 1    
    60   25   58 1    
    61   25   59 1    
    62   25   60 1    
    63   26   61 1    
    64   26   62 1    
    65   26   63 1    
    66   27   64 1    
    67   29   65 1    
    68   30   66 1    
    69   31   67 1    
    70   31   68 1    
    71   32   69 1    
    72   32   70 1    
    73   32   71 1    
    74   33   72 1    
    75   33   73 1    
    76   33   74 1    
    77   37   75 1    
    78   38   76 1    
    79   38   77 1    
    80   38   78 1    
    81   39   79 1    
    82   39   80 1    
@<TRIPOS>SUBSTRUCTURE
     1 ****        2 TEMP              0 ****  ****    0 ROOT 
@<TRIPOS>NORMAL
@<TRIPOS>FF_PBC
FORCE_FIELD_SETUP_FEATURE Force Field Setup information
v1.0  0 0.000000 0.000000 0.000000 0.000000 0.000000 0.000000 NONE 0 0 0 0 1 0 0 0 0 0 0 0 0
