#	Name:			B68
#	Creating user name:	ccollar
#	Creation time:		Mon Jan 17 13:34:45 2005

#	Modifying user name:	ccollar
#	Modification time:	Mon Jan 17 13:35:14 2005

@<TRIPOS>MOLECULE
B68
   77    79     1     1     0
SMALL
GASTEIGER


@<TRIPOS>ATOM
      1 C1         11.214211   15.584622    5.651147 C.ar      1 <1>        -0.047264 
      2 C2         11.945645   15.565230    7.003508 C.3       1 <1>        -0.025039 
      3 C3         11.633895   16.784596    7.922241 C.3       1 <1>        -0.018536 
      4 C4         12.029265   18.241479    7.485976 C.3       1 <1>         0.087645 
      5 C5         11.276708   18.731390    6.216393 C.3       1 <1>         0.024946 
      6 C6          9.802936   18.764214    6.490743 C.2       1 <1>         0.072142 
      7 C7          9.340091   19.040376    7.717380 C.2       1 <1>         0.109797 
      8 C8         10.333713   19.317705    8.773813 C.2       1 <1>         0.303213 
      9 O9         11.647278   19.086737    8.601543 O.3       1 <1>        -0.303695 
     10 C10        13.571294   18.521613    7.353242 C.3       1 <1>        -0.016541 
     11 C11         9.816042   15.642212    5.606793 C.ar      1 <1>        -0.058572 
     12 C12         9.141597   15.733290    4.386340 C.ar      1 <1>        -0.061501 
     13 O13         9.963499   19.789640    9.835702 O.2       1 <1>        -0.258547 
     14 S14         7.596714   19.110081    8.138795 S.3       1 <1>        -0.081047 
     15 C15         7.323450   17.372008    8.384849 C.ar      1 <1>         0.017060 
     16 C16         8.169477   16.688127    9.262744 C.ar      1 <1>        -0.042264 
     17 C17         8.263771   15.295422    9.218488 C.ar      1 <1>        -0.017023 
     18 C18         7.458904   14.607966    8.307239 C.ar      1 <1>         0.111685 
     19 C19         6.533534   15.304784    7.525733 C.ar      1 <1>        -0.024284 
     20 C20         6.301935   16.675329    7.716269 C.ar      1 <1>        -0.025728 
     21 O21         9.018117   18.513269    5.433575 O.3       1 <1>        -0.362719 
     22 C22         9.237937   14.543959   10.133441 C.3       1 <1>        -0.037157 
     23 C23         4.971720   17.334224    7.239131 C.3       1 <1>        -0.011542 
     24 C24         4.371408   18.180897    8.403775 C.3       1 <1>        -0.056008 
     25 C25         3.888269   16.264609    6.880138 C.3       1 <1>        -0.056008 
     26 C26         5.180349   18.217675    5.975734 C.3       1 <1>        -0.056008 
     27 O27         7.581646   13.227527    8.175491 O.3       1 <1>        -0.184447 
     28 C28         9.863452   15.741076    3.190451 C.ar      1 <1>        -0.061742 
     29 C29        11.256291   15.634342    3.221878 C.ar      1 <1>        -0.061501 
     30 C30        11.925557   15.538839    4.445652 C.ar      1 <1>        -0.058572 
     31 H1         13.029129   15.440515    6.884500 H         1 <1>         0.031407 
     32 C32        14.397893   17.949382    8.540349 C.3       1 <1>        -0.060022 
     33 C33        14.245509   18.141939    6.001264 C.3       1 <1>        -0.060022 
     34 S34         6.482602   12.487089    8.884485 S.o2      1 <1>         0.166914 
     35 O35         5.286148   12.613881    8.076065 O.2       1 <1>        -0.126464 
     36 O36         6.430414   12.973703   10.249265 O.2       1 <1>        -0.126464 
     37 N37         6.811641   10.894208    8.977534 N.am      1 <1>        -0.228020 
     38 C38         8.622163   10.453590   10.569444 C.3       1 <1>        -0.048198 
     39 C39         8.177115   10.396518    9.088358 C.3       1 <1>         0.025576 
     40 H2         11.589351   14.653208    7.511488 H         1 <1>         0.031407 
     41 H3         12.096486   16.586095    8.901329 H         1 <1>         0.029641 
     42 H4         10.555348   16.758741    8.106277 H         1 <1>         0.029641 
     43 H5         11.480291   18.089668    5.350743 H         1 <1>         0.036131 
     44 H6         11.578338   19.758592    5.960822 H         1 <1>         0.036131 
     45 H7         13.677727   19.620715    7.412664 H         1 <1>         0.032343 
     46 H8          9.238225   15.616032    6.520789 H         1 <1>         0.062029 
     47 H9          8.057845   15.799293    4.368652 H         1 <1>         0.061766 
     48 H10         8.765772   17.247408    9.975818 H         1 <1>         0.063214 
     49 H11         6.007245   14.739942    6.769416 H         1 <1>         0.064735 
     50 H12         8.082573   18.518110    5.586710 H         1 <1>         0.216929 
     51 H13         9.633799   13.649965    9.628782 H         1 <1>         0.027834 
     52 H14         8.707440   14.237938   11.046850 H         1 <1>         0.027834 
     53 H15        10.088583   15.183826   10.412285 H         1 <1>         0.027834 
     54 H16         4.227659   17.543505    9.290012 H         1 <1>         0.023804 
     55 H17         3.396119   18.606328    8.121534 H         1 <1>         0.023804 
     56 H18         5.010252   19.023390    8.693352 H         1 <1>         0.023804 
     57 H19         4.131802   15.732478    5.948417 H         1 <1>         0.023804 
     58 H20         2.904447   16.731879    6.718838 H         1 <1>         0.023804 
     59 H21         3.778925   15.532923    7.696093 H         1 <1>         0.023804 
     60 H22         5.764658   19.120739    6.189076 H         1 <1>         0.023804 
     61 H23         4.210794   18.551425    5.574985 H         1 <1>         0.023804 
     62 H24         5.695127   17.636483    5.195432 H         1 <1>         0.023804 
     63 H25         9.343970   15.827842    2.241096 H         1 <1>         0.061758 
     64 H26        11.819178   15.624893    2.293427 H         1 <1>         0.061766 
     65 H27        13.003991   15.427001    4.446822 H         1 <1>         0.062029 
     66 H28        15.425592   18.345257    8.520398 H         1 <1>         0.023322 
     67 H29        14.460480   16.852899    8.482997 H         1 <1>         0.023322 
     68 H30        13.946375   18.232801    9.503797 H         1 <1>         0.023322 
     69 H31        15.304372   18.445018    6.017713 H         1 <1>         0.023322 
     70 H32        13.780032   18.655385    5.147446 H         1 <1>         0.023322 
     71 H33        14.219437   17.064109    5.817193 H         1 <1>         0.023322 
     72 H34         6.053538   10.247689    9.074895 H         1 <1>         0.169173 
     73 H35         7.948908    9.839420   11.187172 H         1 <1>         0.024514 
     74 H36         8.589168   11.490415   10.936512 H         1 <1>         0.024514 
     75 H37         9.650162   10.073255   10.676637 H         1 <1>         0.024514 
     76 H38         8.238300    9.357662    8.721891 H         1 <1>         0.047320 
     77 H39         8.855345   11.009906    8.473180 H         1 <1>         0.047320 
@<TRIPOS>BOND
     1    2    1 1    
     2    2    3 1    
     3    3    4 1    
     4    4    5 1    
     5    5    6 1    
     6    6    7 2    
     7    7    8 1    
     8    8    9 1    
     9    4    9 1    
    10    4   10 1    
    11    1   11 ar   
    12   11   12 ar   
    13    8   13 2    
    14    7   14 1    
    15   14   15 1    
    16   15   16 ar   
    17   16   17 ar   
    18   17   18 ar   
    19   18   19 ar   
    20   19   20 ar   
    21   15   20 ar   
    22    6   21 1    
    23   17   22 1    
    24   20   23 1    
    25   23   24 1    
    26   23   25 1    
    27   23   26 1    
    28   18   27 1    
    29   12   28 ar   
    30   28   29 ar   
    31   29   30 ar   
    32    1   30 ar   
    33    2   31 1    
    34   10   32 1    
    35   10   33 1    
    36   27   34 1    
    37   34   35 2    
    38   34   36 2    
    39   34   37 1    
    40   39   38 1    
    41   37   39 1    
    42    2   40 1    
    43    3   41 1    
    44    3   42 1    
    45    5   43 1    
    46    5   44 1    
    47   10   45 1    
    48   11   46 1    
    49   12   47 1    
    50   16   48 1    
    51   19   49 1    
    52   21   50 1    
    53   22   51 1    
    54   22   52 1    
    55   22   53 1    
    56   24   54 1    
    57   24   55 1    
    58   24   56 1    
    59   25   57 1    
    60   25   58 1    
    61   25   59 1    
    62   26   60 1    
    63   26   61 1    
    64   26   62 1    
    65   28   63 1    
    66   29   64 1    
    67   30   65 1    
    68   32   66 1    
    69   32   67 1    
    70   32   68 1    
    71   33   69 1    
    72   33   70 1    
    73   33   71 1    
    74   37   72 1    
    75   38   73 1    
    76   38   74 1    
    77   38   75 1    
    78   39   76 1    
    79   39   77 1    
@<TRIPOS>SUBSTRUCTURE
     1 ****        2 TEMP              0 ****  ****    0 ROOT 
@<TRIPOS>NORMAL
@<TRIPOS>FF_PBC
FORCE_FIELD_SETUP_FEATURE Force Field Setup information
v1.0  0 0.000000 0.000000 0.000000 0.000000 0.000000 0.000000 NONE 0 0 0 0 1 0 0 0 0 0 0 0 0
