#	Name:			H02
#	Creating user name:	ccollar
#	Creation time:		Mon Jan 17 14:52:17 2005

#	Modifying user name:	ccollar
#	Modification time:	Mon Jan 17 14:54:36 2005

@<TRIPOS>MOLECULE
H02
   68    70     1     1     0
SMALL
GASTEIGER


@<TRIPOS>ATOM
      1 C1         10.977633   15.966873    5.065909 C.ar      1 <1>         0.041373 
      2 C2         11.519292   15.551199    6.435094 C.3       1 <1>        -0.007769 
      3 C3         11.266601   16.606383    7.550874 C.3       1 <1>        -0.017118 
      4 C4         11.848756   18.061479    7.417340 C.3       1 <1>         0.087692 
      5 C5         11.152830   18.904904    6.306958 C.3       1 <1>         0.024947 
      6 C6          9.685602   19.035341    6.632906 C.2       1 <1>         0.072142 
      7 C7          9.298217   19.079886    7.909836 C.2       1 <1>         0.109797 
      8 C8         10.326985   19.033515    8.964229 C.2       1 <1>         0.303213 
      9 O9         11.597669   18.692420    8.698799 O.3       1 <1>        -0.303694 
     10 C10        13.413172   18.162499    7.296114 C.3       1 <1>        -0.016540 
     11 C11        14.027836   17.972669    5.876741 C.3       1 <1>        -0.060022 
     12 C12        14.157256   17.273065    8.333633 C.3       1 <1>        -0.060022 
     13 O13        10.032223   19.331735   10.109586 O.2       1 <1>        -0.258547 
     14 S14         7.572793   19.194286    8.354756 S.3       1 <1>        -0.081048 
     15 C15         7.332908   17.437160    8.417723 C.ar      1 <1>         0.016918 
     16 C16         8.028456   16.713081    9.389326 C.ar      1 <1>        -0.044452 
     17 C17         8.227936   15.338383    9.243417 C.ar      1 <1>        -0.044034 
     18 C18         7.746987   14.726179    8.080174 C.ar      1 <1>        -0.018935 
     19 C19         6.845465   15.422989    7.266585 C.ar      1 <1>        -0.051401 
     20 C20         6.502781   16.762692    7.507179 C.ar      1 <1>        -0.027908 
     21 O21         8.785385   19.110774    5.643868 O.3       1 <1>        -0.362719 
     22 C22         8.962631   14.551522   10.337074 C.3       1 <1>        -0.039344 
     23 C23         5.271095   17.424122    6.815484 C.3       1 <1>        -0.011614 
     24 C24         4.410279   18.165354    7.884737 C.3       1 <1>        -0.056009 
     25 C25         4.323942   16.369427    6.154679 C.3       1 <1>        -0.056009 
     26 C26         5.713378   18.405183    5.691227 C.3       1 <1>        -0.056009 
     27 C27         8.182944   13.312962    7.665431 C.3       1 <1>         0.069483 
     28 O28         8.340589   13.269493    6.234605 O.3       1 <1>        -0.390408 
     29 N29        11.842366   16.202731    4.056844 N.ar      1 <1>        -0.259883 
     30 C30        11.424056   16.605400    2.839294 C.ar      1 <1>         0.027864 
     31 C31        10.060511   16.763063    2.576868 C.ar      1 <1>        -0.043577 
     32 C32         9.602842   16.103420    4.848615 C.ar      1 <1>        -0.040390 
     33 C33         9.138418   16.499450    3.592307 C.ar      1 <1>        -0.058636 
     34 H1         12.583079   15.294411    6.356361 H         1 <1>         0.032909 
     35 H2         10.997134   14.617942    6.704843 H         1 <1>         0.032909 
     36 H3         11.640903   16.177302    8.493772 H         1 <1>         0.029689 
     37 H4         10.176306   16.662536    7.662395 H         1 <1>         0.029689 
     38 H5         11.303736   18.446800    5.323257 H         1 <1>         0.036131 
     39 H6         11.572479   19.922017    6.278397 H         1 <1>         0.036131 
     40 H7         13.663596   19.206128    7.562895 H         1 <1>         0.032343 
     41 H8         13.845614   16.972775    5.470943 H         1 <1>         0.023322 
     42 H9         15.119406   18.111316    5.925427 H         1 <1>         0.023322 
     43 H10        13.644510   18.714296    5.160791 H         1 <1>         0.023322 
     44 H11        13.752779   17.430913    9.345432 H         1 <1>         0.023322 
     45 H12        15.229502   17.524141    8.356894 H         1 <1>         0.023322 
     46 H13        14.068932   16.207450    8.079866 H         1 <1>         0.023322 
     47 H14         8.428691   17.231816   10.253485 H         1 <1>         0.063143 
     48 H15         6.424241   14.882399    6.430825 H         1 <1>         0.062431 
     49 H16         9.139692   19.104269    4.761652 H         1 <1>         0.216929 
     50 H17        10.015333   14.420860   10.044985 H         1 <1>         0.027763 
     51 H18         8.494889   13.565894   10.480051 H         1 <1>         0.027763 
     52 H19         8.929751   15.082672   11.300291 H         1 <1>         0.027763 
     53 H20         3.500042   18.590122    7.434431 H         1 <1>         0.023804 
     54 H21         4.941375   18.996832    8.362142 H         1 <1>         0.023804 
     55 H22         4.109388   17.457751    8.672723 H         1 <1>         0.023804 
     56 H23         4.066315   15.575580    6.873045 H         1 <1>         0.023804 
     57 H24         4.777042   15.916628    5.259879 H         1 <1>         0.023804 
     58 H25         3.382743   16.832852    5.820497 H         1 <1>         0.023804 
     59 H26         4.841886   18.752409    5.115298 H         1 <1>         0.023804 
     60 H27         6.402493   17.893312    5.002975 H         1 <1>         0.023804 
     61 H28         6.213373   19.298559    6.082874 H         1 <1>         0.023804 
     62 H29         7.407361   12.604802    8.000067 H         1 <1>         0.060719 
     63 H30         9.144882   13.042483    8.129143 H         1 <1>         0.060719 
     64 H31         8.593030   12.410845    5.907907 H         1 <1>         0.209847 
     65 H32        12.157111   16.805060    2.065058 H         1 <1>         0.082944 
     66 H33         9.722434   17.084901    1.596882 H         1 <1>         0.063265 
     67 H34         8.898986   15.904845    5.646200 H         1 <1>         0.063543 
     68 H35         8.073586   16.601278    3.408174 H         1 <1>         0.061858 
@<TRIPOS>BOND
     1    2    1 1    
     2    2    3 1    
     3    3    4 1    
     4    4    5 1    
     5    5    6 1    
     6    6    7 2    
     7    7    8 1    
     8    8    9 1    
     9    4    9 1    
    10    4   10 1    
    11   10   11 1    
    12   10   12 1    
    13    8   13 2    
    14    7   14 1    
    15   14   15 1    
    16   15   16 ar   
    17   16   17 ar   
    18   17   18 ar   
    19   18   19 ar   
    20   19   20 ar   
    21   15   20 ar   
    22    6   21 1    
    23   17   22 1    
    24   20   23 1    
    25   23   24 1    
    26   23   25 1    
    27   23   26 1    
    28   18   27 1    
    29   27   28 1    
    30    1   29 ar   
    31   29   30 ar   
    32   30   31 ar   
    33    1   32 ar   
    34   32   33 ar   
    35   31   33 ar   
    36    2   34 1    
    37    2   35 1    
    38    3   36 1    
    39    3   37 1    
    40    5   38 1    
    41    5   39 1    
    42   10   40 1    
    43   11   41 1    
    44   11   42 1    
    45   11   43 1    
    46   12   44 1    
    47   12   45 1    
    48   12   46 1    
    49   16   47 1    
    50   19   48 1    
    51   21   49 1    
    52   22   50 1    
    53   22   51 1    
    54   22   52 1    
    55   24   53 1    
    56   24   54 1    
    57   24   55 1    
    58   25   56 1    
    59   25   57 1    
    60   25   58 1    
    61   26   59 1    
    62   26   60 1    
    63   26   61 1    
    64   27   62 1    
    65   27   63 1    
    66   28   64 1    
    67   30   65 1    
    68   31   66 1    
    69   32   67 1    
    70   33   68 1    
@<TRIPOS>SUBSTRUCTURE
     1 ****        2 TEMP              0 ****  ****    0 ROOT 
@<TRIPOS>NORMAL
@<TRIPOS>FF_PBC
FORCE_FIELD_SETUP_FEATURE Force Field Setup information
v1.0  0 0.000000 0.000000 0.000000 0.000000 0.000000 0.000000 NONE 0 0 0 0 1 0 0 0 0 0 0 0 0
