#	Name:			H07
#	Creating user name:	ccollar
#	Creation time:		Mon Jan 17 15:02:03 2005

#	Modifying user name:	ccollar
#	Modification time:	Mon Jan 17 15:04:14 2005

@<TRIPOS>MOLECULE
H07
   66    68     1     1     0
SMALL
GASTEIGER


@<TRIPOS>ATOM
      1 C1         10.351238   14.353068    7.639839 C.2       1 <1>         0.060532 
      2 C2          9.294716   13.993787    6.634196 C.3       1 <1>        -0.006224 
      3 C3          7.962430   14.769433    6.840606 C.3       1 <1>        -0.017067 
      4 C4          7.120846   14.557795    8.151673 C.3       1 <1>         0.087693 
      5 C5          7.819206   15.114212    9.426817 C.3       1 <1>         0.024947 
      6 C6          8.009999   16.603180    9.287574 C.2       1 <1>         0.072142 
      7 C7          7.130705   17.320057    8.581783 C.2       1 <1>         0.109797 
      8 C8          5.972204   16.631895    7.983172 C.2       1 <1>         0.303213 
      9 O9          5.890549   15.292289    7.932090 O.3       1 <1>        -0.303694 
     10 C10         6.610518   13.092044    8.403714 C.3       1 <1>        -0.016540 
     11 C11         7.594610   12.124490    9.128603 C.3       1 <1>        -0.060022 
     12 C12         6.023440   12.425547    7.126251 C.3       1 <1>        -0.060022 
     13 O13         5.045146   17.287698    7.538190 O.2       1 <1>        -0.258547 
     14 S14         7.314464   19.085415    8.358432 S.3       1 <1>        -0.081048 
     15 C15         9.023219   19.081611    7.876211 C.ar      1 <1>         0.016918 
     16 C16         9.351199   18.481856    6.658080 C.ar      1 <1>        -0.044452 
     17 C17        10.671840   18.142834    6.356206 C.ar      1 <1>        -0.044034 
     18 C18        11.647559   18.358730    7.336160 C.ar      1 <1>        -0.018935 
     19 C19        11.321126   19.112438    8.470142 C.ar      1 <1>        -0.051401 
     20 C20        10.032671   19.625124    8.689524 C.ar      1 <1>        -0.027908 
     21 O21         9.051698   17.194917    9.886107 O.3       1 <1>        -0.362719 
     22 C22        11.013519   17.546048    4.984027 C.3       1 <1>        -0.039344 
     23 C23         9.776225   20.731332    9.761105 C.3       1 <1>        -0.011614 
     24 C24         8.917751   21.880257    9.144634 C.3       1 <1>        -0.056009 
     25 C25        11.099901   21.408489   10.249393 C.3       1 <1>        -0.056009 
     26 C26         9.082571   20.135599   11.021003 C.3       1 <1>        -0.056009 
     27 C27        13.066654   17.784289    7.196250 C.3       1 <1>         0.069483 
     28 O28        13.606103   17.462223    8.494653 O.3       1 <1>        -0.390408 
     29 C29        11.159301   13.452374    8.470706 C.2       1 <1>        -0.023634 
     30 C30        11.945427   14.259176    9.191122 C.2       1 <1>         0.013684 
     31 N31        11.681250   15.493844    8.869895 N.pl3     1 <1>        -0.244662 
     32 N32        10.714705   15.531354    7.929310 N.2       1 <1>        -0.187563 
     33 H1          9.140719   12.908785    6.596274 H         1 <1>         0.032959 
     34 H2          9.711821   14.281195    5.655343 H         1 <1>         0.032959 
     35 H3          7.313101   14.540670    5.980845 H         1 <1>         0.029689 
     36 H4          8.224391   15.832539    6.744016 H         1 <1>         0.029689 
     37 H5          8.771687   14.597592    9.594956 H         1 <1>         0.036131 
     38 H6          7.182903   14.957356   10.311158 H         1 <1>         0.036131 
     39 H7          5.759823   13.188334    9.103795 H         1 <1>         0.032343 
     40 H8          8.536145   11.998225    8.585390 H         1 <1>         0.023322 
     41 H9          7.133204   11.129538    9.228752 H         1 <1>         0.023322 
     42 H10         7.828760   12.470190   10.146609 H         1 <1>         0.023322 
     43 H11         5.303221   13.097000    6.633368 H         1 <1>         0.023322 
     44 H12         5.492726   11.495915    7.385972 H         1 <1>         0.023322 
     45 H13         6.816614   12.168417    6.410476 H         1 <1>         0.023322 
     46 H14         8.559908   18.268929    5.947397 H         1 <1>         0.063143 
     47 H15        12.112152   19.285003    9.184610 H         1 <1>         0.062431 
     48 H16         9.645906   16.617846   10.352140 H         1 <1>         0.216929 
     49 H17        11.108253   16.454231    5.076866 H         1 <1>         0.027763 
     50 H18        11.958663   17.965715    4.608527 H         1 <1>         0.027763 
     51 H19        10.229288   17.767629    4.244689 H         1 <1>         0.027763 
     52 H20         8.802875   22.715151    9.852722 H         1 <1>         0.023804 
     53 H21         7.903720   21.568804    8.872842 H         1 <1>         0.023804 
     54 H22         9.411251   22.262487    8.237727 H         1 <1>         0.023804 
     55 H23        11.699670   21.747514    9.390321 H         1 <1>         0.023804 
     56 H24        11.706170   20.731765   10.869929 H         1 <1>         0.023804 
     57 H25        10.891795   22.288175   10.877870 H         1 <1>         0.023804 
     58 H26         8.972823   20.906129   11.799470 H         1 <1>         0.023804 
     59 H27         9.692967   19.315792   11.429285 H         1 <1>         0.023804 
     60 H28         8.081743   19.741545   10.808761 H         1 <1>         0.023804 
     61 H29        13.686936   18.539694    6.686769 H         1 <1>         0.060719 
     62 H30        13.050653   16.860609    6.595400 H         1 <1>         0.060719 
     63 H31        14.499872   17.132799    8.454368 H         1 <1>         0.209847 
     64 H32        11.127194   12.364404    8.493345 H         1 <1>         0.064887 
     65 H33        12.684937   13.931791    9.922390 H         1 <1>         0.079747 
     66 H34        12.151880   16.325388    9.265667 H         1 <1>         0.173672 
@<TRIPOS>BOND
     1    2    1 1    
     2    2    3 1    
     3    3    4 1    
     4    4    5 1    
     5    5    6 1    
     6    6    7 2    
     7    7    8 1    
     8    8    9 1    
     9    4    9 1    
    10    4   10 1    
    11   10   11 1    
    12   10   12 1    
    13    8   13 2    
    14    7   14 1    
    15   14   15 1    
    16   15   16 ar   
    17   16   17 ar   
    18   17   18 ar   
    19   18   19 ar   
    20   19   20 ar   
    21   15   20 ar   
    22    6   21 1    
    23   17   22 1    
    24   20   23 1    
    25   23   24 1    
    26   23   25 1    
    27   23   26 1    
    28   18   27 1    
    29   27   28 1    
    30    1   29 1    
    31   29   30 2    
    32   30   31 1    
    33   31   32 1    
    34    1   32 2    
    35    2   33 1    
    36    2   34 1    
    37    3   35 1    
    38    3   36 1    
    39    5   37 1    
    40    5   38 1    
    41   10   39 1    
    42   11   40 1    
    43   11   41 1    
    44   11   42 1    
    45   12   43 1    
    46   12   44 1    
    47   12   45 1    
    48   16   46 1    
    49   19   47 1    
    50   21   48 1    
    51   22   49 1    
    52   22   50 1    
    53   22   51 1    
    54   24   52 1    
    55   24   53 1    
    56   24   54 1    
    57   25   55 1    
    58   25   56 1    
    59   25   57 1    
    60   26   58 1    
    61   26   59 1    
    62   26   60 1    
    63   27   61 1    
    64   27   62 1    
    65   28   63 1    
    66   29   64 1    
    67   30   65 1    
    68   31   66 1    
@<TRIPOS>SUBSTRUCTURE
     1 ****        2 TEMP              0 ****  ****    0 ROOT 
@<TRIPOS>NORMAL
@<TRIPOS>FF_PBC
FORCE_FIELD_SETUP_FEATURE Force Field Setup information
v1.0  0 0.000000 0.000000 0.000000 0.000000 0.000000 0.000000 NONE 0 0 0 0 1 0 0 0 0 0 0 0 0
