#	Name:			H08
#	Creating user name:	ccollar
#	Creation time:		Mon Jan 17 15:04:45 2005

#	Modifying user name:	ccollar
#	Modification time:	Mon Jan 17 15:05:54 2005

@<TRIPOS>MOLECULE
H08
   66    68     1     1     0
SMALL
GASTEIGER


@<TRIPOS>ATOM
      1 C1          9.386466   14.067902    6.390585 C.2       1 <1>         0.056546 
      2 C2          7.980511   13.779805    5.946957 C.3       1 <1>        -0.006512 
      3 C3          6.920431   14.640108    6.691262 C.3       1 <1>        -0.017076 
      4 C4          6.706352   14.450429    8.237477 C.3       1 <1>         0.087693 
      5 C5          7.930797   14.883974    9.091721 C.3       1 <1>         0.024947 
      6 C6          8.215515   16.344103    8.851977 C.2       1 <1>         0.072142 
      7 C7          7.205691   17.183136    8.590767 C.2       1 <1>         0.109797 
      8 C8          5.834146   16.634117    8.577518 C.2       1 <1>         0.303213 
      9 O9          5.591562   15.312295    8.571215 O.3       1 <1>        -0.303694 
     10 C10         6.211900   13.025979    8.684951 C.3       1 <1>        -0.016540 
     11 C11         7.316745   11.955762    8.942907 C.3       1 <1>        -0.060022 
     12 C12         5.092760   12.453456    7.768439 C.3       1 <1>        -0.060022 
     13 O13         4.881065   17.395003    8.593932 O.2       1 <1>        -0.258547 
     14 S14         7.396117   18.943239    8.273911 S.3       1 <1>        -0.081048 
     15 C15         9.121020   19.117016    7.893580 C.ar      1 <1>         0.016918 
     16 C16         9.525768   18.833326    6.587037 C.ar      1 <1>        -0.044452 
     17 C17        10.874343   18.657414    6.265850 C.ar      1 <1>        -0.044034 
     18 C18        11.807613   18.709787    7.308525 C.ar      1 <1>        -0.018935 
     19 C19        11.394744   19.134502    8.577268 C.ar      1 <1>        -0.051401 
     20 C20        10.066297   19.484186    8.867613 C.ar      1 <1>        -0.027908 
     21 O21         9.480719   16.775410    8.920241 O.3       1 <1>        -0.362719 
     22 C22        11.285478   18.404258    4.806931 C.3       1 <1>        -0.039344 
     23 C23         9.699717   20.230055   10.190296 C.3       1 <1>        -0.011614 
     24 C24         8.814796   21.476564    9.874776 C.3       1 <1>        -0.056009 
     25 C25        10.957832   20.785653   10.937365 C.3       1 <1>        -0.056009 
     26 C26         8.979573   19.269838   11.183241 C.3       1 <1>        -0.056009 
     27 C27        13.281918   18.306734    7.123338 C.3       1 <1>         0.069483 
     28 O28        13.470234   16.970016    7.622628 O.3       1 <1>        -0.390408 
     29 N29        10.305538   13.200304    7.073414 N.2       1 <1>        -0.243423 
     30 C30        11.386741   13.805163    7.270847 C.2       1 <1>         0.085413 
     31 N31        11.297350   15.006227    6.788772 N.pl3     1 <1>        -0.309974 
     32 C32        10.110802   15.194672    6.254783 C.2       1 <1>         0.015912 
     33 H1          7.770276   12.705418    6.006136 H         1 <1>         0.032950 
     34 H2          7.946099   14.042081    4.876485 H         1 <1>         0.032950 
     35 H3          5.952621   14.474966    6.192699 H         1 <1>         0.029689 
     36 H4          7.186599   15.686297    6.478968 H         1 <1>         0.029689 
     37 H5          8.797694   14.257084    8.854531 H         1 <1>         0.036131 
     38 H6          7.709669   14.771409   10.164208 H         1 <1>         0.036131 
     39 H7          5.736609   13.170160    9.673031 H         1 <1>         0.032343 
     40 H8          6.851586   10.988865    9.190638 H         1 <1>         0.023322 
     41 H9          7.952360   12.229860    9.798578 H         1 <1>         0.023322 
     42 H10         7.965764   11.799376    8.074586 H         1 <1>         0.023322 
     43 H11         4.631128   11.566692    8.230981 H         1 <1>         0.023322 
     44 H12         5.495853   12.149137    6.792191 H         1 <1>         0.023322 
     45 H13         4.299711   13.201153    7.611472 H         1 <1>         0.023322 
     46 H14         8.766388   18.737629    5.818500 H         1 <1>         0.063143 
     47 H15        12.155317   19.173542    9.342967 H         1 <1>         0.062431 
     48 H16        10.143654   16.122098    9.114602 H         1 <1>         0.216929 
     49 H17        11.786390   17.428599    4.719681 H         1 <1>         0.027763 
     50 H18        11.969067   19.200373    4.476244 H         1 <1>         0.027763 
     51 H19        10.418989   18.400784    4.128994 H         1 <1>         0.027763 
     52 H20         9.338956   22.127648    9.158243 H         1 <1>         0.023804 
     53 H21         8.611259   22.059244   10.786224 H         1 <1>         0.023804 
     54 H22         7.838465   21.223463    9.448428 H         1 <1>         0.023804 
     55 H23        11.567754   19.978964   11.371272 H         1 <1>         0.023804 
     56 H24        10.670074   21.433521   11.779853 H         1 <1>         0.023804 
     57 H25        11.579721   21.387084   10.256012 H         1 <1>         0.023804 
     58 H26         7.987100   18.959388   10.837768 H         1 <1>         0.023804 
     59 H27         8.840717   19.757916   12.160147 H         1 <1>         0.023804 
     60 H28         9.588713   18.364727   11.330547 H         1 <1>         0.023804 
     61 H29        13.940672   19.017664    7.650034 H         1 <1>         0.060719 
     62 H30        13.592480   18.311787    6.070191 H         1 <1>         0.060719 
     63 H31        13.301523   16.903098    8.558682 H         1 <1>         0.209847 
     64 H32        12.255291   13.374055    7.769921 H         1 <1>         0.100029 
     65 H33        12.051392   15.711746    6.817129 H         1 <1>         0.152509 
     66 H34         9.749994   16.102859    5.775916 H         1 <1>         0.079965 
@<TRIPOS>BOND
     1    2    1 1    
     2    2    3 1    
     3    3    4 1    
     4    4    5 1    
     5    5    6 1    
     6    6    7 2    
     7    7    8 1    
     8    8    9 1    
     9    4    9 1    
    10    4   10 1    
    11   10   11 1    
    12   10   12 1    
    13    8   13 2    
    14    7   14 1    
    15   14   15 1    
    16   15   16 ar   
    17   16   17 ar   
    18   17   18 ar   
    19   18   19 ar   
    20   19   20 ar   
    21   15   20 ar   
    22    6   21 1    
    23   17   22 1    
    24   20   23 1    
    25   23   24 1    
    26   23   25 1    
    27   23   26 1    
    28   18   27 1    
    29   27   28 1    
    30    1   29 1    
    31   29   30 2    
    32   30   31 1    
    33   31   32 1    
    34    1   32 2    
    35    2   33 1    
    36    2   34 1    
    37    3   35 1    
    38    3   36 1    
    39    5   37 1    
    40    5   38 1    
    41   10   39 1    
    42   11   40 1    
    43   11   41 1    
    44   11   42 1    
    45   12   43 1    
    46   12   44 1    
    47   12   45 1    
    48   16   46 1    
    49   19   47 1    
    50   21   48 1    
    51   22   49 1    
    52   22   50 1    
    53   22   51 1    
    54   24   52 1    
    55   24   53 1    
    56   24   54 1    
    57   25   55 1    
    58   25   56 1    
    59   25   57 1    
    60   26   58 1    
    61   26   59 1    
    62   26   60 1    
    63   27   61 1    
    64   27   62 1    
    65   28   63 1    
    66   30   64 1    
    67   31   65 1    
    68   32   66 1    
@<TRIPOS>SUBSTRUCTURE
     1 ****        2 TEMP              0 ****  ****    0 ROOT 
@<TRIPOS>NORMAL
@<TRIPOS>FF_PBC
FORCE_FIELD_SETUP_FEATURE Force Field Setup information
v1.0  0 0.000000 0.000000 0.000000 0.000000 0.000000 0.000000 NONE 0 0 0 0 1 0 0 0 0 0 0 0 0
