#	Name:			H09
#	Creating user name:	ccollar
#	Creation time:		Mon Jan 17 15:06:33 2005

#	Modifying user name:	ccollar
#	Modification time:	Mon Jan 17 15:07:30 2005

@<TRIPOS>MOLECULE
H09
   66    68     1     1     0
SMALL
GASTEIGER


@<TRIPOS>ATOM
      1 C1          9.084318   13.785181    6.578023 C.2       1 <1>         0.059807 
      2 C2          7.649954   13.529283    6.201303 C.3       1 <1>        -0.002966 
      3 C3          6.650932   14.482693    6.916691 C.3       1 <1>        -0.016679 
      4 C4          6.478674   14.408178    8.477936 C.3       1 <1>         0.087707 
      5 C5          7.745886   14.845157    9.266402 C.3       1 <1>         0.024947 
      6 C6          8.084327   16.273010    8.923223 C.2       1 <1>         0.072142 
      7 C7          7.103200   17.134000    8.627653 C.2       1 <1>         0.109797 
      8 C8          5.709875   16.646081    8.683186 C.2       1 <1>         0.303213 
      9 O9          5.411856   15.339556    8.779540 O.3       1 <1>        -0.303694 
     10 C10         5.934431   13.043017    9.038562 C.3       1 <1>        -0.016540 
     11 C11         6.993795   11.937180    9.332858 C.3       1 <1>        -0.060022 
     12 C12         4.757475   12.465936    8.200697 C.3       1 <1>        -0.060022 
     13 O13         4.790307   17.447095    8.664321 O.2       1 <1>        -0.258547 
     14 S14         7.355859   18.859177    8.189964 S.3       1 <1>        -0.081048 
     15 C15         9.092774   18.975710    7.840527 C.ar      1 <1>         0.016918 
     16 C16         9.512283   18.583692    6.566388 C.ar      1 <1>        -0.044452 
     17 C17        10.865667   18.466244    6.241939 C.ar      1 <1>        -0.044034 
     18 C18        11.809245   18.761478    7.231637 C.ar      1 <1>        -0.018935 
     19 C19        11.372866   19.166326    8.498812 C.ar      1 <1>        -0.051401 
     20 C20        10.023060   19.411058    8.803356 C.ar      1 <1>        -0.027908 
     21 O21         9.367288   16.655759    8.937300 O.3       1 <1>        -0.362719 
     22 C22        11.284457   18.013440    4.834964 C.3       1 <1>        -0.039344 
     23 C23         9.622004   20.130303   10.134492 C.3       1 <1>        -0.011614 
     24 C24         8.738487   21.378963    9.822901 C.3       1 <1>        -0.056009 
     25 C25        10.854089   20.682648   10.927437 C.3       1 <1>        -0.056009 
     26 C26         8.889523   19.151960   11.102232 C.3       1 <1>        -0.056009 
     27 C27        13.320427   18.650192    6.958332 C.3       1 <1>         0.069483 
     28 O28        13.752952   17.291847    7.139699 O.3       1 <1>        -0.390408 
     29 O29         9.736574   12.823199    7.237511 O.3       1 <1>        -0.321134 
     30 C30        10.936082   13.395996    7.388686 C.2       1 <1>         0.046494 
     31 C31        11.076843   14.622337    6.880875 C.2       1 <1>        -0.036410 
     32 C32         9.764621   14.899450    6.306228 C.2       1 <1>        -0.033479 
     33 H1          7.384573   12.473462    6.336186 H         1 <1>         0.033375 
     34 H2          7.587914   13.720970    5.117044 H         1 <1>         0.033375 
     35 H3          5.661400   14.325803    6.459778 H         1 <1>         0.029704 
     36 H4          6.950494   15.500272    6.625577 H         1 <1>         0.029704 
     37 H5          8.579230   14.168878    9.045873 H         1 <1>         0.036131 
     38 H6          7.554415   14.811778   10.349911 H         1 <1>         0.036131 
     39 H7          5.503390   13.277281   10.029666 H         1 <1>         0.032343 
     40 H8          6.491414   11.021522    9.681972 H         1 <1>         0.023322 
     41 H9          7.687143   12.242023   10.131125 H         1 <1>         0.023322 
     42 H10         7.585428   11.673552    8.449885 H         1 <1>         0.023322 
     43 H11         3.994942   13.239098    8.018153 H         1 <1>         0.023322 
     44 H12         4.271992   11.635808    8.737856 H         1 <1>         0.023322 
     45 H13         5.111220   12.077356    7.235216 H         1 <1>         0.023322 
     46 H14         8.758209   18.361093    5.819135 H         1 <1>         0.063143 
     47 H15        12.139781   19.278451    9.250124 H         1 <1>         0.062431 
     48 H16        10.002355   15.996505    9.193144 H         1 <1>         0.216929 
     49 H17        12.030505   17.207753    4.905609 H         1 <1>         0.027763 
     50 H18        11.716051   18.866574    4.291009 H         1 <1>         0.027763 
     51 H19        10.431791   17.633824    4.252811 H         1 <1>         0.027763 
     52 H20         9.275389   22.044967    9.129902 H         1 <1>         0.023804 
     53 H21         8.513543   21.944249   10.740282 H         1 <1>         0.023804 
     54 H22         7.772494   21.132449    9.370540 H         1 <1>         0.023804 
     55 H23        11.475192   19.869475   11.333249 H         1 <1>         0.023804 
     56 H24        10.537375   21.284302   11.793618 H         1 <1>         0.023804 
     57 H25        11.471965   21.333422   10.289058 H         1 <1>         0.023804 
     58 H26         7.897561   18.851925   10.748550 H         1 <1>         0.023804 
     59 H27         8.742434   19.618175   12.088561 H         1 <1>         0.023804 
     60 H28         9.495468   18.242874   11.236875 H         1 <1>         0.023804 
     61 H29        13.893316   19.322177    7.619169 H         1 <1>         0.060719 
     62 H30        13.554149   18.954743    5.928068 H         1 <1>         0.060719 
     63 H31        13.606966   16.981839    8.028361 H         1 <1>         0.209847 
     64 H32        11.749285   12.881358    7.900051 H         1 <1>         0.088989 
     65 H33        11.952950   15.268397    6.887070 H         1 <1>         0.063802 
     66 H34         9.426093   15.792009    5.785916 H         1 <1>         0.064073 
@<TRIPOS>BOND
     1    2    1 1    
     2    2    3 1    
     3    3    4 1    
     4    4    5 1    
     5    5    6 1    
     6    6    7 2    
     7    7    8 1    
     8    8    9 1    
     9    4    9 1    
    10    4   10 1    
    11   10   11 1    
    12   10   12 1    
    13    8   13 2    
    14    7   14 1    
    15   14   15 1    
    16   15   16 ar   
    17   16   17 ar   
    18   17   18 ar   
    19   18   19 ar   
    20   19   20 ar   
    21   15   20 ar   
    22    6   21 1    
    23   17   22 1    
    24   20   23 1    
    25   23   24 1    
    26   23   25 1    
    27   23   26 1    
    28   18   27 1    
    29   27   28 1    
    30    1   29 1    
    31   29   30 1    
    32   30   31 2    
    33   31   32 1    
    34    1   32 2    
    35    2   33 1    
    36    2   34 1    
    37    3   35 1    
    38    3   36 1    
    39    5   37 1    
    40    5   38 1    
    41   10   39 1    
    42   11   40 1    
    43   11   41 1    
    44   11   42 1    
    45   12   43 1    
    46   12   44 1    
    47   12   45 1    
    48   16   46 1    
    49   19   47 1    
    50   21   48 1    
    51   22   49 1    
    52   22   50 1    
    53   22   51 1    
    54   24   52 1    
    55   24   53 1    
    56   24   54 1    
    57   25   55 1    
    58   25   56 1    
    59   25   57 1    
    60   26   58 1    
    61   26   59 1    
    62   26   60 1    
    63   27   61 1    
    64   27   62 1    
    65   28   63 1    
    66   30   64 1    
    67   31   65 1    
    68   32   66 1    
@<TRIPOS>SUBSTRUCTURE
     1 ****        2 TEMP              0 ****  ****    0 ROOT 
@<TRIPOS>NORMAL
@<TRIPOS>FF_PBC
FORCE_FIELD_SETUP_FEATURE Force Field Setup information
v1.0  0 0.000000 0.000000 0.000000 0.000000 0.000000 0.000000 NONE 0 0 0 0 1 0 0 0 0 0 0 0 0
