#	Name:			H11
#	Creating user name:	ccollar
#	Creation time:		Mon Jan 17 15:08:53 2005

#	Modifying user name:	ccollar
#	Modification time:	Mon Jan 17 15:10:12 2005

@<TRIPOS>MOLECULE
H11
   70    72     1     1     0
SMALL
GASTEIGER


@<TRIPOS>ATOM
      1 C1         10.621915   14.038703    9.212341 C.3       1 <1>         0.058859 
      2 C2         10.005518   14.000327    7.783604 C.3       1 <1>        -0.023960 
      3 C3          8.745808   14.865029    7.447052 C.3       1 <1>        -0.020183 
      4 C4          7.320410   14.611667    8.065400 C.3       1 <1>         0.087430 
      5 C5          7.146351   15.126734    9.524292 C.3       1 <1>         0.024937 
      6 C6          7.366016   16.608831    9.566902 C.2       1 <1>         0.072142 
      7 C7          7.053035   17.377980    8.516153 C.2       1 <1>         0.109797 
      8 C8          6.440975   16.711042    7.351020 C.2       1 <1>         0.303213 
      9 O9          6.411103   15.373195    7.227892 O.3       1 <1>        -0.303704 
     10 C10         6.760705   13.150429    7.919147 C.3       1 <1>        -0.016549 
     11 C11         7.269041   12.099259    8.950145 C.3       1 <1>        -0.060022 
     12 C12         6.876120   12.594485    6.469752 C.3       1 <1>        -0.060022 
     13 O13         5.921332   17.385145    6.477468 O.2       1 <1>        -0.258547 
     14 S14         7.323085   19.149396    8.456661 S.3       1 <1>        -0.081048 
     15 C15         9.009524   19.090841    7.897472 C.ar      1 <1>         0.016918 
     16 C16         9.304535   18.404848    6.717202 C.ar      1 <1>        -0.044452 
     17 C17        10.619048   18.048328    6.400763 C.ar      1 <1>        -0.044034 
     18 C18        11.626389   18.312415    7.340848 C.ar      1 <1>        -0.018935 
     19 C19        11.303313   19.074353    8.472769 C.ar      1 <1>        -0.051401 
     20 C20        10.054290   19.696037    8.610944 C.ar      1 <1>        -0.027908 
     21 O21         7.883589   17.078051   10.711916 O.3       1 <1>        -0.362719 
     22 C22        10.869574   17.380042    5.039573 C.3       1 <1>        -0.039344 
     23 C23         9.884853   20.987234    9.466137 C.3       1 <1>        -0.011614 
     24 C24         9.080783   22.040239    8.642958 C.3       1 <1>        -0.056009 
     25 C25        11.264617   21.647343    9.790791 C.3       1 <1>        -0.056009 
     26 C26         9.173888   20.704779   10.819847 C.3       1 <1>        -0.056009 
     27 C27        13.071519   17.802471    7.165205 C.3       1 <1>         0.069483 
     28 O28        13.164533   16.369537    7.228415 O.3       1 <1>        -0.390408 
     29 O29         9.807115   13.434221   10.218167 O.3       1 <1>        -0.376550 
     30 C30        10.400535   13.725170   11.492522 C.3       1 <1>         0.048099 
     31 C31        11.039863   15.130750   11.325084 C.3       1 <1>        -0.027112 
     32 C32        10.894624   15.436507    9.812893 C.3       1 <1>        -0.024522 
     33 H1         11.575294   13.477750    9.187483 H         1 <1>         0.059575 
     34 H2          9.843583   12.951997    7.502825 H         1 <1>         0.029100 
     35 H3         10.808736   14.367031    7.122127 H         1 <1>         0.029100 
     36 H4          8.611341   14.762492    6.357189 H         1 <1>         0.029407 
     37 H5          9.028290   15.911941    7.602706 H         1 <1>         0.029407 
     38 H6          6.124555   14.937800    9.886794 H         1 <1>         0.036131 
     39 H7          7.844892   14.651493   10.216330 H         1 <1>         0.036131 
     40 H8          5.675903   13.230569    8.117973 H         1 <1>         0.032343 
     41 H9          6.735101   11.147556    8.800773 H         1 <1>         0.023322 
     42 H10         7.077827   12.416546    9.985372 H         1 <1>         0.023322 
     43 H11         8.338293   11.890181    8.843384 H         1 <1>         0.023322 
     44 H12         6.303271   11.658747    6.372614 H         1 <1>         0.023322 
     45 H13         7.918981   12.375706    6.204067 H         1 <1>         0.023322 
     46 H14         6.472183   13.313100    5.740038 H         1 <1>         0.023322 
     47 H15         8.496985   18.139939    6.043192 H         1 <1>         0.063143 
     48 H16        12.044922   19.181266    9.252461 H         1 <1>         0.062431 
     49 H17         8.025944   18.013747   10.761167 H         1 <1>         0.216929 
     50 H18        10.646156   16.306227    5.122366 H         1 <1>         0.027763 
     51 H19        11.898785   17.508217    4.680193 H         1 <1>         0.027763 
     52 H20        10.203366   17.815355    4.279214 H         1 <1>         0.027763 
     53 H21         9.593479   22.237091    7.688640 H         1 <1>         0.023804 
     54 H22         8.995254   22.990119    9.192739 H         1 <1>         0.023804 
     55 H23         8.059199   21.711449    8.416891 H         1 <1>         0.023804 
     56 H24        11.835764   21.061828   10.526394 H         1 <1>         0.023804 
     57 H25        11.133291   22.649220   10.228121 H         1 <1>         0.023804 
     58 H26        11.865559   21.758810    8.874764 H         1 <1>         0.023804 
     59 H27         9.204282   21.596820   11.464323 H         1 <1>         0.023804 
     60 H28         9.682766   19.881562   11.344146 H         1 <1>         0.023804 
     61 H29         8.117151   20.444057   10.684616 H         1 <1>         0.023804 
     62 H30        13.714920   18.166049    7.980661 H         1 <1>         0.060719 
     63 H31        13.504387   18.196612    6.232409 H         1 <1>         0.060719 
     64 H32        12.700396   15.930452    6.525565 H         1 <1>         0.209847 
     65 H33        11.171078   12.963334   11.698504 H         1 <1>         0.055977 
     66 H34         9.638384   13.682514   12.286436 H         1 <1>         0.055977 
     67 H35        12.103496   15.104022   11.615853 H         1 <1>         0.028812 
     68 H36        10.529316   15.891801   11.939303 H         1 <1>         0.028812 
     69 H37        11.780297   15.927046    9.380189 H         1 <1>         0.029081 
     70 H38        10.029044   16.094715    9.671085 H         1 <1>         0.029081 
@<TRIPOS>BOND
     1    2    1 1    
     2    2    3 1    
     3    3    4 1    
     4    4    5 1    
     5    5    6 1    
     6    6    7 2    
     7    7    8 1    
     8    8    9 1    
     9    4    9 1    
    10    4   10 1    
    11   10   11 1    
    12   10   12 1    
    13    8   13 2    
    14    7   14 1    
    15   14   15 1    
    16   15   16 ar   
    17   16   17 ar   
    18   17   18 ar   
    19   18   19 ar   
    20   19   20 ar   
    21   15   20 ar   
    22    6   21 1    
    23   17   22 1    
    24   20   23 1    
    25   23   24 1    
    26   23   25 1    
    27   23   26 1    
    28   18   27 1    
    29   27   28 1    
    30    1   29 1    
    31   29   30 1    
    32   30   31 1    
    33   31   32 1    
    34    1   32 1    
    35    1   33 1    
    36    2   34 1    
    37    2   35 1    
    38    3   36 1    
    39    3   37 1    
    40    5   38 1    
    41    5   39 1    
    42   10   40 1    
    43   11   41 1    
    44   11   42 1    
    45   11   43 1    
    46   12   44 1    
    47   12   45 1    
    48   12   46 1    
    49   16   47 1    
    50   19   48 1    
    51   21   49 1    
    52   22   50 1    
    53   22   51 1    
    54   22   52 1    
    55   24   53 1    
    56   24   54 1    
    57   24   55 1    
    58   25   56 1    
    59   25   57 1    
    60   25   58 1    
    61   26   59 1    
    62   26   60 1    
    63   26   61 1    
    64   27   62 1    
    65   27   63 1    
    66   28   64 1    
    67   30   65 1    
    68   30   66 1    
    69   31   67 1    
    70   31   68 1    
    71   32   69 1    
    72   32   70 1    
@<TRIPOS>SUBSTRUCTURE
     1 ****        2 TEMP              0 ****  ****    0 ROOT 
@<TRIPOS>NORMAL
@<TRIPOS>FF_PBC
FORCE_FIELD_SETUP_FEATURE Force Field Setup information
v1.0  0 0.000000 0.000000 0.000000 0.000000 0.000000 0.000000 NONE 0 0 0 0 1 0 0 0 0 0 0 0 0
