#	Name:			H12
#	Creating user name:	ccollar
#	Creation time:		Mon Jan 17 15:10:35 2005

#	Modifying user name:	ccollar
#	Modification time:	Mon Jan 17 15:11:34 2005

@<TRIPOS>MOLECULE
H12
   66    68     1     1     0
SMALL
GASTEIGER


@<TRIPOS>ATOM
      1 C1         10.325242   14.347504    9.268999 C.2       1 <1>        -0.010112 
      2 C2          9.952630   14.065305    7.837128 C.3       1 <1>        -0.018779 
      3 C3          8.698050   14.837727    7.335456 C.3       1 <1>        -0.018053 
      4 C4          7.297615   14.603184    8.008829 C.3       1 <1>         0.087660 
      5 C5          7.230456   15.090517    9.484320 C.3       1 <1>         0.024946 
      6 C6          7.488996   16.567044    9.529451 C.2       1 <1>         0.072142 
      7 C7          7.092275   17.360422    8.525055 C.2       1 <1>         0.109797 
      8 C8          6.398462   16.723326    7.387909 C.2       1 <1>         0.303213 
      9 O9          6.361579   15.388614    7.226818 O.3       1 <1>        -0.303694 
     10 C10         6.721027   13.145576    7.886439 C.3       1 <1>        -0.016540 
     11 C11         7.189861   12.112449    8.954837 C.3       1 <1>        -0.060022 
     12 C12         6.871782   12.552144    6.456387 C.3       1 <1>        -0.060022 
     13 O13         5.820828   17.420848    6.571031 O.2       1 <1>        -0.258547 
     14 S14         7.342393   19.137230    8.490845 S.3       1 <1>        -0.081048 
     15 C15         9.015167   19.110133    7.898346 C.ar      1 <1>         0.016918 
     16 C16         9.291986   18.412969    6.720662 C.ar      1 <1>        -0.044452 
     17 C17        10.591407   17.979356    6.444560 C.ar      1 <1>        -0.044034 
     18 C18        11.600315   18.275877    7.369812 C.ar      1 <1>        -0.018935 
     19 C19        11.320475   19.142887    8.434596 C.ar      1 <1>        -0.051401 
     20 C20        10.061995   19.743805    8.585508 C.ar      1 <1>        -0.027908 
     21 O21         8.121326   17.006852   10.627030 O.3       1 <1>        -0.362719 
     22 C22        10.878165   17.182837    5.163095 C.3       1 <1>        -0.039344 
     23 C23         9.875956   21.039241    9.431917 C.3       1 <1>        -0.011614 
     24 C24         9.016748   22.061625    8.625473 C.3       1 <1>        -0.056009 
     25 C25        11.240425   21.747965    9.717067 C.3       1 <1>        -0.056009 
     26 C26         9.212858   20.740170   10.806778 C.3       1 <1>        -0.056009 
     27 C27        12.997831   17.653050    7.227784 C.3       1 <1>         0.069483 
     28 O28        12.876560   16.257412    7.555959 O.3       1 <1>        -0.390408 
     29 S29        10.457633   13.058817   10.493421 S.3       1 <1>        -0.101603 
     30 C30        10.875128   14.306509   11.692398 C.2       1 <1>        -0.024067 
     31 C31        10.910177   15.541070   11.185532 C.2       1 <1>        -0.054470 
     32 C32        10.590399   15.564183    9.753205 C.2       1 <1>        -0.051543 
     33 H1          9.849560   12.986338    7.669130 H         1 <1>         0.031917 
     34 H2         10.819776   14.384135    7.235482 H         1 <1>         0.031917 
     35 H3          8.597572   14.642285    6.256425 H         1 <1>         0.029657 
     36 H4          8.953687   15.899482    7.418105 H         1 <1>         0.029657 
     37 H5          7.951105   14.565292   10.122351 H         1 <1>         0.036131 
     38 H6          6.223911   14.926645    9.898444 H         1 <1>         0.036131 
     39 H7          5.632820   13.241427    8.058066 H         1 <1>         0.032343 
     40 H8          6.697217   11.143898    8.775281 H         1 <1>         0.023322 
     41 H9          6.917376   12.424168    9.973869 H         1 <1>         0.023322 
     42 H10         8.270071   11.940047    8.923482 H         1 <1>         0.023322 
     43 H11         6.515515   13.266835    5.698288 H         1 <1>         0.023322 
     44 H12         6.276378   11.630800    6.356977 H         1 <1>         0.023322 
     45 H13         7.919701   12.297965    6.242315 H         1 <1>         0.023322 
     46 H14         8.482875   18.197237    6.031147 H         1 <1>         0.063143 
     47 H15        12.106712   19.336804    9.150531 H         1 <1>         0.062431 
     48 H16         8.307150   17.935942   10.666647 H         1 <1>         0.216929 
     49 H17         9.952616   16.915444    4.631626 H         1 <1>         0.027763 
     50 H18        11.407498   16.249724    5.403854 H         1 <1>         0.027763 
     51 H19        11.500211   17.791150    4.490105 H         1 <1>         0.027763 
     52 H20         8.923359   23.015003    9.167834 H         1 <1>         0.023804 
     53 H21         7.996972   21.706194    8.436291 H         1 <1>         0.023804 
     54 H22         9.493171   22.261655    7.653213 H         1 <1>         0.023804 
     55 H23        11.849112   21.189807   10.443847 H         1 <1>         0.023804 
     56 H24        11.086974   22.748763   10.149604 H         1 <1>         0.023804 
     57 H25        11.814052   21.871090    8.785173 H         1 <1>         0.023804 
     58 H26         8.169659   20.417236   10.704289 H         1 <1>         0.023804 
     59 H27         9.210799   21.642972   11.436824 H         1 <1>         0.023804 
     60 H28         9.777850   19.954021   11.330570 H         1 <1>         0.023804 
     61 H29        13.720427   18.135723    7.906359 H         1 <1>         0.060719 
     62 H30        13.362671   17.792869    6.197495 H         1 <1>         0.060719 
     63 H31        13.699105   15.781986    7.487950 H         1 <1>         0.209847 
     64 H32        11.080281   14.072785   12.736506 H         1 <1>         0.069331 
     65 H33        11.145869   16.435925   11.761007 H         1 <1>         0.062293 
     66 H34        10.573334   16.482697    9.171365 H         1 <1>         0.062558 
@<TRIPOS>BOND
     1    2    1 1    
     2    2    3 1    
     3    3    4 1    
     4    4    5 1    
     5    5    6 1    
     6    6    7 2    
     7    7    8 1    
     8    8    9 1    
     9    4    9 1    
    10    4   10 1    
    11   10   11 1    
    12   10   12 1    
    13    8   13 2    
    14    7   14 1    
    15   14   15 1    
    16   15   16 ar   
    17   16   17 ar   
    18   17   18 ar   
    19   18   19 ar   
    20   19   20 ar   
    21   15   20 ar   
    22    6   21 1    
    23   17   22 1    
    24   20   23 1    
    25   23   24 1    
    26   23   25 1    
    27   23   26 1    
    28   18   27 1    
    29   27   28 1    
    30    1   29 1    
    31   29   30 1    
    32   30   31 2    
    33   31   32 1    
    34    1   32 2    
    35    2   33 1    
    36    2   34 1    
    37    3   35 1    
    38    3   36 1    
    39    5   37 1    
    40    5   38 1    
    41   10   39 1    
    42   11   40 1    
    43   11   41 1    
    44   11   42 1    
    45   12   43 1    
    46   12   44 1    
    47   12   45 1    
    48   16   46 1    
    49   19   47 1    
    50   21   48 1    
    51   22   49 1    
    52   22   50 1    
    53   22   51 1    
    54   24   52 1    
    55   24   53 1    
    56   24   54 1    
    57   25   55 1    
    58   25   56 1    
    59   25   57 1    
    60   26   58 1    
    61   26   59 1    
    62   26   60 1    
    63   27   61 1    
    64   27   62 1    
    65   28   63 1    
    66   30   64 1    
    67   31   65 1    
    68   32   66 1    
@<TRIPOS>SUBSTRUCTURE
     1 ****        2 TEMP              0 ****  ****    0 ROOT 
@<TRIPOS>NORMAL
@<TRIPOS>FF_PBC
FORCE_FIELD_SETUP_FEATURE Force Field Setup information
v1.0  0 0.000000 0.000000 0.000000 0.000000 0.000000 0.000000 NONE 0 0 0 0 1 0 0 0 0 0 0 0 0
