#	Name:			H18
#	Creating user name:	ccollar
#	Creation time:		Mon Jan 17 15:22:26 2005

#	Modifying user name:	ccollar
#	Modification time:	Mon Jan 17 15:22:51 2005

@<TRIPOS>MOLECULE
H18
   69    71     1     1     0
SMALL
GASTEIGER


@<TRIPOS>ATOM
      1 C1         10.432090   14.681409    9.622867 C.2       1 <1>        -0.037359 
      2 C2         10.027224   14.206182    8.243931 C.3       1 <1>        -0.024288 
      3 C3          8.769129   14.858530    7.591650 C.3       1 <1>        -0.018512 
      4 C4          7.335771   14.626367    8.197843 C.3       1 <1>         0.087645 
      5 C5          7.155562   15.263043    9.607220 C.3       1 <1>         0.024946 
      6 C6          7.297536   16.760764    9.510593 C.2       1 <1>         0.072142 
      7 C7          6.968500   17.389254    8.379759 C.2       1 <1>         0.109797 
      8 C8          6.404704   16.604204    7.266882 C.2       1 <1>         0.303213 
      9 O9          6.427607   15.262446    7.264111 O.3       1 <1>        -0.303695 
     10 C10         6.823124   13.139405    8.204066 C.3       1 <1>        -0.016541 
     11 C11         7.239701   12.264640    9.423479 C.3       1 <1>        -0.060022 
     12 C12         7.106074   12.389176    6.870628 C.3       1 <1>        -0.060022 
     13 O13         5.876866   17.178182    6.329131 O.2       1 <1>        -0.258547 
     14 S14         7.196703   19.152281    8.202831 S.3       1 <1>        -0.081048 
     15 C15         8.834959   18.995170    7.537181 C.ar      1 <1>         0.016918 
     16 C16         8.983225   18.397696    6.283110 C.ar      1 <1>        -0.044452 
     17 C17        10.207899   17.841881    5.905248 C.ar      1 <1>        -0.044034 
     18 C18        11.251829   17.863737    6.837680 C.ar      1 <1>        -0.018935 
     19 C19        11.147427   18.698134    7.956805 C.ar      1 <1>        -0.051401 
     20 C20         9.973797   19.411392    8.245828 C.ar      1 <1>        -0.027908 
     21 O21         7.748082   17.450360   10.566496 O.3       1 <1>        -0.362719 
     22 C22        10.370606   17.225092    4.509762 C.3       1 <1>        -0.039344 
     23 C23         9.967662   20.586707    9.269593 C.3       1 <1>        -0.011614 
     24 C24         9.216046   21.807938    8.655529 C.3       1 <1>        -0.056009 
     25 C25        11.411384   21.087436    9.601633 C.3       1 <1>        -0.056009 
     26 C26         9.310625   20.158171   10.613168 C.3       1 <1>        -0.056009 
     27 C27        12.508318   16.995673    6.678557 C.3       1 <1>         0.069483 
     28 O28        12.868851   16.468222    7.969090 O.3       1 <1>        -0.390408 
     29 C29        10.965802   13.815025   10.694975 C.2       1 <1>        -0.040273 
     30 C30        11.216142   14.497505   11.816752 C.2       1 <1>        -0.021155 
     31 S31        10.865929   16.233364   11.704576 S.3       1 <1>        -0.104527 
     32 C32        10.366045   15.955433   10.023977 C.2       1 <1>        -0.020897 
     33 C33        11.242222   12.336319   10.571174 C.3       1 <1>        -0.038948 
     34 H1          9.924881   13.116683    8.210258 H         1 <1>         0.031431 
     35 H2         10.895074   14.449837    7.609309 H         1 <1>         0.031431 
     36 H3          8.738394   14.520320    6.543869 H         1 <1>         0.029642 
     37 H4          8.968137   15.934625    7.533105 H         1 <1>         0.029642 
     38 H5          7.894690   14.832462   10.296242 H         1 <1>         0.036131 
     39 H6          6.147462   15.063236   10.001261 H         1 <1>         0.036131 
     40 H7          5.721583   13.201825    8.280850 H         1 <1>         0.032343 
     41 H8          6.837352   11.245694    9.310704 H         1 <1>         0.023322 
     42 H9          6.843536   12.661987   10.369816 H         1 <1>         0.023322 
     43 H10         8.325561   12.183845    9.513596 H         1 <1>         0.023322 
     44 H11         6.784438   12.993260    6.008008 H         1 <1>         0.023322 
     45 H12         6.552340   11.437476    6.839235 H         1 <1>         0.023322 
     46 H13         8.175146   12.156740    6.764550 H         1 <1>         0.023322 
     47 H14         8.133183   18.352561    5.611237 H         1 <1>         0.063143 
     48 H15        12.012413   18.764634    8.601725 H         1 <1>         0.062431 
     49 H16         7.928733   16.939914   11.348374 H         1 <1>         0.216929 
     50 H17         9.623361   17.626395    3.808647 H         1 <1>         0.027763 
     51 H18        10.238062   16.134920    4.577799 H         1 <1>         0.027763 
     52 H19        11.368284   17.450659    4.104200 H         1 <1>         0.027763 
     53 H20         9.248045   22.673887    9.334387 H         1 <1>         0.023804 
     54 H21         8.157595   21.603222    8.457068 H         1 <1>         0.023804 
     55 H22         9.690854   22.095059    7.704584 H         1 <1>         0.023804 
     56 H23        11.974441   21.286071    8.676376 H         1 <1>         0.023804 
     57 H24        11.965845   20.360987   10.214562 H         1 <1>         0.023804 
     58 H25        11.385074   22.022130   10.182885 H         1 <1>         0.023804 
     59 H26         9.442007   20.941509   11.375277 H         1 <1>         0.023804 
     60 H27         9.782403   19.233782   10.980237 H         1 <1>         0.023804 
     61 H28         8.232628   19.985055   10.513844 H         1 <1>         0.023804 
     62 H29        13.312704   17.628368    6.269089 H         1 <1>         0.060719 
     63 H30        12.327199   16.151998    5.993970 H         1 <1>         0.060719 
     64 H31        13.655313   15.931013    7.952835 H         1 <1>         0.209847 
     65 H32        11.608980   14.053763   12.730804 H         1 <1>         0.069596 
     66 H33        10.038820   16.791202    9.414916 H         1 <1>         0.069605 
     67 H34        11.595045   12.085700    9.560589 H         1 <1>         0.027777 
     68 H35        10.331320   11.763792   10.793332 H         1 <1>         0.027777 
     69 H36        12.024637   12.027220   11.280912 H         1 <1>         0.027777 
@<TRIPOS>BOND
     1    2    1 1    
     2    2    3 1    
     3    3    4 1    
     4    4    5 1    
     5    5    6 1    
     6    6    7 2    
     7    7    8 1    
     8    8    9 1    
     9    4    9 1    
    10    4   10 1    
    11   10   11 1    
    12   10   12 1    
    13    8   13 2    
    14    7   14 1    
    15   14   15 1    
    16   15   16 ar   
    17   16   17 ar   
    18   17   18 ar   
    19   18   19 ar   
    20   19   20 ar   
    21   15   20 ar   
    22    6   21 1    
    23   17   22 1    
    24   20   23 1    
    25   23   24 1    
    26   23   25 1    
    27   23   26 1    
    28   18   27 1    
    29   27   28 1    
    30    1   29 1    
    31   29   30 2    
    32   30   31 1    
    33   31   32 1    
    34    1   32 2    
    35   29   33 1    
    36    2   34 1    
    37    2   35 1    
    38    3   36 1    
    39    3   37 1    
    40    5   38 1    
    41    5   39 1    
    42   10   40 1    
    43   11   41 1    
    44   11   42 1    
    45   11   43 1    
    46   12   44 1    
    47   12   45 1    
    48   12   46 1    
    49   16   47 1    
    50   19   48 1    
    51   21   49 1    
    52   22   50 1    
    53   22   51 1    
    54   22   52 1    
    55   24   53 1    
    56   24   54 1    
    57   24   55 1    
    58   25   56 1    
    59   25   57 1    
    60   25   58 1    
    61   26   59 1    
    62   26   60 1    
    63   26   61 1    
    64   27   62 1    
    65   27   63 1    
    66   28   64 1    
    67   30   65 1    
    68   32   66 1    
    69   33   67 1    
    70   33   68 1    
    71   33   69 1    
@<TRIPOS>SUBSTRUCTURE
     1 ****        2 TEMP              0 ****  ****    0 ROOT 
@<TRIPOS>NORMAL
@<TRIPOS>FF_PBC
FORCE_FIELD_SETUP_FEATURE Force Field Setup information
v1.0  0 0.000000 0.000000 0.000000 0.000000 0.000000 0.000000 NONE 0 0 0 0 1 0 0 0 0 0 0 0 0
