#	Name:			H19
#	Creating user name:	ccollar
#	Creation time:		Mon Jan 17 15:23:19 2005

#	Modifying user name:	ccollar
#	Modification time:	Mon Jan 17 15:23:37 2005

@<TRIPOS>MOLECULE
H19
   70    72     1     1     0
SMALL
GASTEIGER


@<TRIPOS>ATOM
      1 C1         10.230180   14.426772    9.227191 C.2       1 <1>        -0.009772 
      2 C2          9.661314   13.921079    7.926677 C.3       1 <1>        -0.018769 
      3 C3          8.363000   14.633677    7.446596 C.3       1 <1>        -0.018053 
      4 C4          7.056059   14.571284    8.317591 C.3       1 <1>         0.087660 
      5 C5          7.179968   15.336664    9.667790 C.3       1 <1>         0.024946 
      6 C6          7.423965   16.800490    9.400384 C.2       1 <1>         0.072142 
      7 C7          6.911921   17.367280    8.305407 C.2       1 <1>         0.109797 
      8 C8          6.103973   16.543565    7.387842 C.2       1 <1>         0.303213 
      9 O9          6.035571   15.207246    7.506938 O.3       1 <1>        -0.303694 
     10 C10         6.464897   13.133490    8.555250 C.3       1 <1>        -0.016540 
     11 C11         7.060041   12.316220    9.741586 C.3       1 <1>        -0.060022 
     12 C12         6.430957   12.268953    7.262128 C.3       1 <1>        -0.060022 
     13 O13         5.458452   17.083096    6.504967 O.2       1 <1>        -0.258547 
     14 S14         7.171396   19.100069    7.950221 S.3       1 <1>        -0.081048 
     15 C15         8.914262   19.011999    7.622347 C.ar      1 <1>         0.016918 
     16 C16         9.330708   18.216092    6.552232 C.ar      1 <1>        -0.044452 
     17 C17        10.671125   17.856270    6.391746 C.ar      1 <1>        -0.044034 
     18 C18        11.605659   18.351509    7.309243 C.ar      1 <1>        -0.018935 
     19 C19        11.170604   19.188951    8.343841 C.ar      1 <1>        -0.051401 
     20 C20         9.861451   19.691556    8.408042 C.ar      1 <1>        -0.027908 
     21 O21         8.138406   17.524427   10.271536 O.3       1 <1>        -0.362719 
     22 C22        11.076518   16.920693    5.243277 C.3       1 <1>        -0.039344 
     23 C23         9.527695   20.940219    9.285182 C.3       1 <1>        -0.011614 
     24 C24         8.746015   21.988038    8.432175 C.3       1 <1>        -0.056009 
     25 C25        10.813817   21.678915    9.785223 C.3       1 <1>        -0.056009 
     26 C26         8.716829   20.545427   10.553806 C.3       1 <1>        -0.056009 
     27 C27        13.097477   17.987282    7.210359 C.3       1 <1>         0.069483 
     28 O28        13.952265   18.957713    7.840630 O.3       1 <1>        -0.390408 
     29 S29        10.617118   13.342516   10.586381 S.3       1 <1>        -0.095846 
     30 C30        11.166639   14.764843   11.508204 C.2       1 <1>         0.015295 
     31 C31        11.053555   15.911693   10.832317 C.2       1 <1>        -0.049065 
     32 C32        10.502066   15.708093    9.487912 C.2       1 <1>        -0.051202 
     33 C33        11.696149   14.632641   12.913319 C.3       1 <1>         0.075342 
     34 O34        12.363079   15.824144   13.367026 O.3       1 <1>        -0.389904 
     35 H1          9.520367   12.833996    7.968697 H         1 <1>         0.031917 
     36 H2         10.448397   14.095163    7.174164 H         1 <1>         0.031917 
     37 H3          8.122959   14.236059    6.447979 H         1 <1>         0.029657 
     38 H4          8.634569   15.683684    7.283358 H         1 <1>         0.029657 
     39 H5          7.976494   14.899325   10.281379 H         1 <1>         0.036131 
     40 H6          6.237345   15.270677   10.232345 H         1 <1>         0.036131 
     41 H7          5.406795   13.290393    8.835806 H         1 <1>         0.032343 
     42 H8          6.559186   11.337526    9.806552 H         1 <1>         0.023322 
     43 H9          6.900019   12.819525   10.706539 H         1 <1>         0.023322 
     44 H10         8.131787   12.128459    9.624576 H         1 <1>         0.023322 
     45 H11         5.823756   11.363575    7.419945 H         1 <1>         0.023322 
     46 H12         7.441431   11.947044    6.973304 H         1 <1>         0.023322 
     47 H13         5.984115   12.832081    6.428070 H         1 <1>         0.023322 
     48 H14         8.587044   17.866696    5.843315 H         1 <1>         0.063143 
     49 H15        11.890554   19.433481    9.111024 H         1 <1>         0.062431 
     50 H16         8.429763   17.064580   11.051032 H         1 <1>         0.216929 
     51 H17        11.726928   16.117861    5.621302 H         1 <1>         0.027763 
     52 H18        11.611763   17.496904    4.473977 H         1 <1>         0.027763 
     53 H19        10.200766   16.446285    4.775361 H         1 <1>         0.027763 
     54 H20         9.328660   22.239707    7.532551 H         1 <1>         0.023804 
     55 H21         8.572992   22.914260    9.001292 H         1 <1>         0.023804 
     56 H22         7.760147   21.637309    8.108950 H         1 <1>         0.023804 
     57 H23        11.353620   21.096336   10.546812 H         1 <1>         0.023804 
     58 H24        10.564359   22.640279   10.260414 H         1 <1>         0.023804 
     59 H25        11.491345   21.891459    8.943462 H         1 <1>         0.023804 
     60 H26         7.720698   20.153818   10.317140 H         1 <1>         0.023804 
     61 H27         8.573239   21.420160   11.206525 H         1 <1>         0.023804 
     62 H28         9.265859   19.778144   11.120493 H         1 <1>         0.023804 
     63 H29        13.418820   17.875725    6.162451 H         1 <1>         0.060719 
     64 H30        13.241280   17.024530    7.724407 H         1 <1>         0.060719 
     65 H31        13.884501   19.819432    7.439661 H         1 <1>         0.209847 
     66 H32        11.327726   16.895425   11.212351 H         1 <1>         0.062640 
     67 H33        10.338150   16.528049    8.796120 H         1 <1>         0.062567 
     68 H34        12.382374   13.771119   12.965313 H         1 <1>         0.061227 
     69 H35        10.844565   14.436054   13.582043 H         1 <1>         0.061227 
     70 H36        13.137643   16.031848   12.852540 H         1 <1>         0.209868 
@<TRIPOS>BOND
     1    2    1 1    
     2    2    3 1    
     3    3    4 1    
     4    4    5 1    
     5    5    6 1    
     6    6    7 2    
     7    7    8 1    
     8    8    9 1    
     9    4    9 1    
    10    4   10 1    
    11   10   11 1    
    12   10   12 1    
    13    8   13 2    
    14    7   14 1    
    15   14   15 1    
    16   15   16 ar   
    17   16   17 ar   
    18   17   18 ar   
    19   18   19 ar   
    20   19   20 ar   
    21   15   20 ar   
    22    6   21 1    
    23   17   22 1    
    24   20   23 1    
    25   23   24 1    
    26   23   25 1    
    27   23   26 1    
    28   18   27 1    
    29   27   28 1    
    30    1   29 1    
    31   29   30 1    
    32   30   31 2    
    33   31   32 1    
    34    1   32 2    
    35   30   33 1    
    36   33   34 1    
    37    2   35 1    
    38    2   36 1    
    39    3   37 1    
    40    3   38 1    
    41    5   39 1    
    42    5   40 1    
    43   10   41 1    
    44   11   42 1    
    45   11   43 1    
    46   11   44 1    
    47   12   45 1    
    48   12   46 1    
    49   12   47 1    
    50   16   48 1    
    51   19   49 1    
    52   21   50 1    
    53   22   51 1    
    54   22   52 1    
    55   22   53 1    
    56   24   54 1    
    57   24   55 1    
    58   24   56 1    
    59   25   57 1    
    60   25   58 1    
    61   25   59 1    
    62   26   60 1    
    63   26   61 1    
    64   26   62 1    
    65   27   63 1    
    66   27   64 1    
    67   28   65 1    
    68   31   66 1    
    69   32   67 1    
    70   33   68 1    
    71   33   69 1    
    72   34   70 1    
@<TRIPOS>SUBSTRUCTURE
     1 ****        2 TEMP              0 ****  ****    0 ROOT 
@<TRIPOS>NORMAL
@<TRIPOS>FF_PBC
FORCE_FIELD_SETUP_FEATURE Force Field Setup information
v1.0  0 0.000000 0.000000 0.000000 0.000000 0.000000 0.000000 NONE 0 0 0 0 1 0 0 0 0 0 0 0 0
