#	Name:			H20
#	Creating user name:	ccollar
#	Creation time:		Mon Jan 17 15:24:38 2005

#	Modifying user name:	ccollar
#	Modification time:	Mon Jan 17 15:25:01 2005

@<TRIPOS>MOLECULE
H20
   70    72     1     1     0
SMALL
GASTEIGER


@<TRIPOS>ATOM
      1 C1         10.242432   14.323868    9.252271 C.2       1 <1>        -0.034878 
      2 C2          9.528789   13.786241    8.029868 C.3       1 <1>        -0.024202 
      3 C3          8.274292   14.561986    7.523028 C.3       1 <1>        -0.018511 
      4 C4          6.946990   14.581756    8.365119 C.3       1 <1>         0.087645 
      5 C5          7.085752   15.349867    9.708970 C.3       1 <1>         0.024946 
      6 C6          7.349041   16.803009    9.449455 C.2       1 <1>         0.072142 
      7 C7          6.896204   17.401861    8.339330 C.2       1 <1>         0.109797 
      8 C8          6.105641   16.590236    7.393842 C.2       1 <1>         0.303213 
      9 O9          5.980356   15.258654    7.522596 O.3       1 <1>        -0.303695 
     10 C10         6.267186   13.184832    8.612163 C.3       1 <1>        -0.016541 
     11 C11         6.768075   12.373116    9.844606 C.3       1 <1>        -0.060022 
     12 C12         6.227238   12.288352    7.341079 C.3       1 <1>        -0.060022 
     13 O13         5.521649   17.139569    6.474842 O.2       1 <1>        -0.258547 
     14 S14         7.172287   19.131536    7.945805 S.3       1 <1>        -0.081048 
     15 C15         8.906299   19.025331    7.580177 C.ar      1 <1>         0.016918 
     16 C16         9.327271   18.105691    6.617293 C.ar      1 <1>        -0.044452 
     17 C17        10.658676   17.681485    6.571319 C.ar      1 <1>        -0.044034 
     18 C18        11.563689   18.226818    7.492214 C.ar      1 <1>        -0.018935 
     19 C19        11.131006   19.239883    8.357499 C.ar      1 <1>        -0.051401 
     20 C20         9.858071   19.816292    8.241713 C.ar      1 <1>        -0.027908 
     21 O21         8.046576   17.430807   10.407677 O.3       1 <1>        -0.362719 
     22 C22        11.085066   16.622917    5.543773 C.3       1 <1>        -0.039344 
     23 C23         9.566396   21.246897    8.786919 C.3       1 <1>        -0.011614 
     24 C24         8.792585   22.063843    7.706001 C.3       1 <1>        -0.056009 
     25 C25        10.886470   22.038302    9.064784 C.3       1 <1>        -0.056009 
     26 C26         8.759783   21.206874   10.116254 C.3       1 <1>        -0.056009 
     27 C27        13.018188   17.731880    7.578725 C.3       1 <1>         0.069483 
     28 O28        13.905839   18.702520    8.161481 O.3       1 <1>        -0.390408 
     29 C29        10.360408   15.759054    9.560216 C.2       1 <1>        -0.051208 
     30 C30        11.007331   16.010444   10.698710 C.2       1 <1>        -0.023729 
     31 S31        11.555098   14.539352   11.521369 S.3       1 <1>        -0.099035 
     32 C32        10.860560   13.583222   10.183316 C.2       1 <1>         0.018190 
     33 C33        11.011027   12.082552   10.178871 C.3       1 <1>         0.075594 
     34 O34        11.327981   11.614956    8.854569 O.3       1 <1>        -0.389895 
     35 H1          9.266398   12.729534    8.142987 H         1 <1>         0.031432 
     36 H2         10.291711   13.828161    7.235442 H         1 <1>         0.031432 
     37 H3          8.021778   14.150582    6.532793 H         1 <1>         0.029642 
     38 H4          8.592305   15.591949    7.329750 H         1 <1>         0.029642 
     39 H5          7.890940   14.917987   10.319331 H         1 <1>         0.036131 
     40 H6          6.147900   15.306098   10.283306 H         1 <1>         0.036131 
     41 H7          5.209673   13.405914    8.848908 H         1 <1>         0.032343 
     42 H8          6.587540   12.907012   10.789387 H         1 <1>         0.023322 
     43 H9          7.834678   12.143269    9.783152 H         1 <1>         0.023322 
     44 H10         6.225249   11.417028    9.908874 H         1 <1>         0.023322 
     45 H11         5.564962   11.422832    7.501091 H         1 <1>         0.023322 
     46 H12         7.225974   11.902422    7.093333 H         1 <1>         0.023322 
     47 H13         5.839208   12.853223    6.479204 H         1 <1>         0.023322 
     48 H14         8.600483   17.714037    5.913223 H         1 <1>         0.063143 
     49 H15        11.809209   19.569318    9.132167 H         1 <1>         0.062431 
     50 H16         8.225943   18.351911   10.271091 H         1 <1>         0.216929 
     51 H17        10.219166   16.173088    5.035171 H         1 <1>         0.027763 
     52 H18        11.635621   15.812918    6.044819 H         1 <1>         0.027763 
     53 H19        11.728527   17.090164    4.783614 H         1 <1>         0.027763 
     54 H20         9.365646   22.071480    6.765874 H         1 <1>         0.023804 
     55 H21         8.643208   23.105827    8.028065 H         1 <1>         0.023804 
     56 H22         7.797234   21.656895    7.493469 H         1 <1>         0.023804 
     57 H23        11.419660   21.654562    9.947071 H         1 <1>         0.023804 
     58 H24        10.679411   23.099939    9.270240 H         1 <1>         0.023804 
     59 H25        11.555852   21.990322    8.191652 H         1 <1>         0.023804 
     60 H26         7.748558   20.804291    9.978234 H         1 <1>         0.023804 
     61 H27         8.652775   22.221718   10.529324 H         1 <1>         0.023804 
     62 H28         9.288498   20.587415   10.856617 H         1 <1>         0.023804 
     63 H29        13.414334   17.456333    6.588420 H         1 <1>         0.060719 
     64 H30        13.027191   16.836476    8.219265 H         1 <1>         0.060719 
     65 H31        13.957559   19.504528    7.649631 H         1 <1>         0.209847 
     66 H32         9.976179   16.561829    8.941200 H         1 <1>         0.062565 
     67 H33        11.187625   17.011987   11.088792 H         1 <1>         0.069340 
     68 H34        10.089529   11.624850   10.570117 H         1 <1>         0.061236 
     69 H35        11.842238   11.817617   10.853411 H         1 <1>         0.061236 
     70 H36        11.439881   10.670019    8.807193 H         1 <1>         0.209868 
@<TRIPOS>BOND
     1    2    1 1    
     2    2    3 1    
     3    3    4 1    
     4    4    5 1    
     5    5    6 1    
     6    6    7 2    
     7    7    8 1    
     8    8    9 1    
     9    4    9 1    
    10    4   10 1    
    11   10   11 1    
    12   10   12 1    
    13    8   13 2    
    14    7   14 1    
    15   14   15 1    
    16   15   16 ar   
    17   16   17 ar   
    18   17   18 ar   
    19   18   19 ar   
    20   19   20 ar   
    21   15   20 ar   
    22    6   21 1    
    23   17   22 1    
    24   20   23 1    
    25   23   24 1    
    26   23   25 1    
    27   23   26 1    
    28   18   27 1    
    29   27   28 1    
    30    1   29 1    
    31   29   30 2    
    32   30   31 1    
    33   31   32 1    
    34    1   32 2    
    35   32   33 1    
    36   33   34 1    
    37    2   35 1    
    38    2   36 1    
    39    3   37 1    
    40    3   38 1    
    41    5   39 1    
    42    5   40 1    
    43   10   41 1    
    44   11   42 1    
    45   11   43 1    
    46   11   44 1    
    47   12   45 1    
    48   12   46 1    
    49   12   47 1    
    50   16   48 1    
    51   19   49 1    
    52   21   50 1    
    53   22   51 1    
    54   22   52 1    
    55   22   53 1    
    56   24   54 1    
    57   24   55 1    
    58   24   56 1    
    59   25   57 1    
    60   25   58 1    
    61   25   59 1    
    62   26   60 1    
    63   26   61 1    
    64   26   62 1    
    65   27   63 1    
    66   27   64 1    
    67   28   65 1    
    68   29   66 1    
    69   30   67 1    
    70   33   68 1    
    71   33   69 1    
    72   34   70 1    
@<TRIPOS>SUBSTRUCTURE
     1 ****        2 TEMP              0 ****  ****    0 ROOT 
@<TRIPOS>NORMAL
@<TRIPOS>FF_PBC
FORCE_FIELD_SETUP_FEATURE Force Field Setup information
v1.0  0 0.000000 0.000000 0.000000 0.000000 0.000000 0.000000 NONE 0 0 0 0 1 0 0 0 0 0 0 0 0
