#	Name:			H23
#	Creating user name:	ccollar
#	Creation time:		Mon Jan 17 15:28:23 2005

#	Modifying user name:	ccollar
#	Modification time:	Mon Jan 17 15:28:38 2005

@<TRIPOS>MOLECULE
H23
   68    70     1     1     0
SMALL
GASTEIGER


@<TRIPOS>ATOM
      1 C1         10.068842   13.853975    8.375053 C.2       1 <1>         0.078651 
      2 C2          9.140958   13.453649    7.264921 C.3       1 <1>        -0.001333 
      3 C3          7.881266   14.361693    7.164796 C.3       1 <1>        -0.016617 
      4 C4          6.868877   14.440670    8.364981 C.3       1 <1>         0.087708 
      5 C5          7.435714   15.199919    9.601228 C.3       1 <1>         0.024947 
      6 C6          7.730431   16.631677    9.230652 C.2       1 <1>         0.072142 
      7 C7          6.992792   17.238833    8.296914 C.2       1 <1>         0.109797 
      8 C8          5.889488   16.492046    7.665769 C.2       1 <1>         0.303213 
      9 O9          5.729346   15.171657    7.847404 O.3       1 <1>        -0.303694 
     10 C10         6.225592   13.075305    8.805276 C.3       1 <1>        -0.016540 
     11 C11         7.049997   12.196501    9.794388 C.3       1 <1>        -0.060022 
     12 C12         5.721604   12.226675    7.602173 C.3       1 <1>        -0.060022 
     13 O13         5.077382   17.085148    6.975675 O.2       1 <1>        -0.258547 
     14 S14         7.283180   18.935558    7.809866 S.3       1 <1>        -0.081048 
     15 C15         9.044594   18.882623    7.590650 C.ar      1 <1>         0.016918 
     16 C16         9.540915   18.117693    6.532128 C.ar      1 <1>        -0.044452 
     17 C17        10.904095   17.836717    6.418152 C.ar      1 <1>        -0.044034 
     18 C18        11.746582   18.229475    7.464795 C.ar      1 <1>        -0.018935 
     19 C19        11.247695   19.080077    8.458589 C.ar      1 <1>        -0.051401 
     20 C20         9.928037   19.559928    8.450123 C.ar      1 <1>        -0.027908 
     21 O21         8.716926   17.287149    9.856018 O.3       1 <1>        -0.362719 
     22 C22        11.429371   17.109107    5.172571 C.3       1 <1>        -0.039344 
     23 C23         9.511867   20.778481    9.335314 C.3       1 <1>        -0.011614 
     24 C24         8.749628   21.829116    8.467669 C.3       1 <1>        -0.056009 
     25 C25        10.745460   21.539190    9.926754 C.3       1 <1>        -0.056009 
     26 C26         8.644482   20.325161   10.546257 C.3       1 <1>        -0.056009 
     27 C27        13.202606   17.742717    7.552599 C.3       1 <1>         0.069483 
     28 O28        13.593871   17.575203    8.929261 O.3       1 <1>        -0.390408 
     29 N29        10.327121   13.121023    9.371994 N.2       1 <1>        -0.249227 
     30 C30        11.223564   13.660311   10.360525 C.2       1 <1>         0.045660 
     31 C31        11.617182   14.885515    9.992298 C.2       1 <1>        -0.001631 
     32 S32        10.906794   15.415261    8.429416 S.3       1 <1>        -0.080274 
     33 C33        11.617026   12.908295   11.600767 C.3       1 <1>        -0.021829 
     34 H1          8.880836   12.390593    7.339790 H         1 <1>         0.033438 
     35 H2          9.723452   13.563304    6.335388 H         1 <1>         0.033438 
     36 H3          7.321405   14.038085    6.272777 H         1 <1>         0.029705 
     37 H4          8.253245   15.372259    6.939395 H         1 <1>         0.029705 
     38 H5          8.327742   14.694551    9.987856 H         1 <1>         0.036131 
     39 H6          6.685828   15.231205   10.406366 H         1 <1>         0.036131 
     40 H7          5.317591   13.346273    9.375533 H         1 <1>         0.032343 
     41 H8          6.485653   11.282150   10.036090 H         1 <1>         0.023322 
     42 H9          7.235141   12.717057   10.745618 H         1 <1>         0.023322 
     43 H10         8.014378   11.885314    9.380906 H         1 <1>         0.023322 
     44 H11         5.099395   11.389589    7.956318 H         1 <1>         0.023322 
     45 H12         6.559433   11.801840    7.032687 H         1 <1>         0.023322 
     46 H13         5.107279   12.838432    6.923440 H         1 <1>         0.023322 
     47 H14         8.846988   17.732690    5.792500 H         1 <1>         0.063143 
     48 H15        11.930560   19.356395    9.248084 H         1 <1>         0.062431 
     49 H16         9.186501   16.799070   10.522969 H         1 <1>         0.216929 
     50 H17        11.550053   16.039180    5.399077 H         1 <1>         0.027763 
     51 H18        12.396324   17.530610    4.859895 H         1 <1>         0.027763 
     52 H19        10.730847   17.211206    4.328440 H         1 <1>         0.027763 
     53 H20         9.368603   22.109592    7.601450 H         1 <1>         0.023804 
     54 H21         8.532213   22.740542    9.045328 H         1 <1>         0.023804 
     55 H22         7.785896   21.469463    8.092609 H         1 <1>         0.023804 
     56 H23        11.261519   20.950927   10.700299 H         1 <1>         0.023804 
     57 H24        10.441441   22.477909   10.415226 H         1 <1>         0.023804 
     58 H25        11.460160   21.796669    9.129489 H         1 <1>         0.023804 
     59 H26         7.687310   19.884202   10.244639 H         1 <1>         0.023804 
     60 H27         8.417237   21.182564   11.198191 H         1 <1>         0.023804 
     61 H28         9.194095   19.577911   11.138424 H         1 <1>         0.023804 
     62 H29        13.837557   18.492669    7.053178 H         1 <1>         0.060719 
     63 H30        13.320433   16.772719    7.043481 H         1 <1>         0.060719 
     64 H31        14.498148   17.293446    9.032016 H         1 <1>         0.209847 
     65 H32        12.297336   15.514291   10.565050 H         1 <1>         0.071172 
     66 H33        10.712940   12.677309   12.183117 H         1 <1>         0.029265 
     67 H34        12.305832   13.497033   12.225065 H         1 <1>         0.029265 
     68 H35        12.108632   11.967604   11.312448 H         1 <1>         0.029265 
@<TRIPOS>BOND
     1    2    1 1    
     2    2    3 1    
     3    3    4 1    
     4    4    5 1    
     5    5    6 1    
     6    6    7 2    
     7    7    8 1    
     8    8    9 1    
     9    4    9 1    
    10    4   10 1    
    11   10   11 1    
    12   10   12 1    
    13    8   13 2    
    14    7   14 1    
    15   14   15 1    
    16   15   16 ar   
    17   16   17 ar   
    18   17   18 ar   
    19   18   19 ar   
    20   19   20 ar   
    21   15   20 ar   
    22    6   21 1    
    23   17   22 1    
    24   20   23 1    
    25   23   24 1    
    26   23   25 1    
    27   23   26 1    
    28   18   27 1    
    29   27   28 1    
    30    1   29 2    
    31   29   30 1    
    32   30   31 2    
    33   31   32 1    
    34    1   32 1    
    35   30   33 1    
    36    2   34 1    
    37    2   35 1    
    38    3   36 1    
    39    3   37 1    
    40    5   38 1    
    41    5   39 1    
    42   10   40 1    
    43   11   41 1    
    44   11   42 1    
    45   11   43 1    
    46   12   44 1    
    47   12   45 1    
    48   12   46 1    
    49   16   47 1    
    50   19   48 1    
    51   21   49 1    
    52   22   50 1    
    53   22   51 1    
    54   22   52 1    
    55   24   53 1    
    56   24   54 1    
    57   24   55 1    
    58   25   56 1    
    59   25   57 1    
    60   25   58 1    
    61   26   59 1    
    62   26   60 1    
    63   26   61 1    
    64   27   62 1    
    65   27   63 1    
    66   28   64 1    
    67   31   65 1    
    68   33   66 1    
    69   33   67 1    
    70   33   68 1    
@<TRIPOS>SUBSTRUCTURE
     1 ****        2 TEMP              0 ****  ****    0 ROOT 
@<TRIPOS>NORMAL
@<TRIPOS>FF_PBC
FORCE_FIELD_SETUP_FEATURE Force Field Setup information
v1.0  0 0.000000 0.000000 0.000000 0.000000 0.000000 0.000000 NONE 0 0 0 0 1 0 0 0 0 0 0 0 0
