#	Name:			H31
#	Creating user name:	ccollar
#	Creation time:		Mon Jan 17 15:36:00 2005

#	Modifying user name:	ccollar
#	Modification time:	Mon Jan 17 15:36:35 2005

@<TRIPOS>MOLECULE
H31
   73    75     2     1     0
SMALL
GASTEIGER


@<TRIPOS>ATOM
      1 C1         10.414564   14.174817    8.409430 C.2       2 CN          0.050674 
      2 C2          9.956595   14.351843    6.989108 C.3       2 CN         -0.007178 
      3 C3          8.667062   15.209871    6.861803 C.3       2 CN         -0.017100 
      4 C4          7.330863   14.743088    7.549278 C.3       2 CN          0.087692 
      5 C5          7.375724   14.790013    9.106350 C.3       2 CN          0.024947 
      6 C6          7.663237   16.204271    9.542448 C.2       2 CN          0.072142 
      7 C7          7.211244   17.223129    8.807552 C.2       2 CN          0.109797 
      8 C8          6.395274   16.924329    7.615740 C.2       2 CN          0.303213 
      9 O9          6.328327   15.687389    7.096484 O.3       2 CN         -0.303694 
     10 C10         6.764770   13.361163    7.058386 C.3       2 CN         -0.016540 
     11 C11         7.340540   12.085642    7.745534 C.3       2 CN         -0.060022 
     12 C12         6.797126   13.210293    5.510187 C.3       2 CN         -0.060022 
     13 O13         5.743402   17.811840    7.091621 O.2       2 CN         -0.258547 
     14 S14         7.579948   18.914654    9.245498 S.3       2 CN         -0.081048 
     15 C15         9.061323   19.006365    8.267307 C.ar      2 CN          0.016918 
     16 C16         8.936543   18.889932    6.880485 C.ar      2 CN         -0.044452 
     17 C17        10.039018   18.568439    6.085538 C.ar      2 CN         -0.044034 
     18 C18        11.268049   18.350556    6.718339 C.ar      2 CN         -0.018935 
     19 C19        11.407012   18.686265    8.070492 C.ar      2 CN         -0.051401 
     20 C20        10.334198   19.159312    8.843720 C.ar      2 CN         -0.027908 
     21 O21         8.364628   16.427493   10.660843 O.3       2 CN         -0.362719 
     22 C22         9.877062   18.457814    4.563047 C.3       2 CN         -0.039344 
     23 C23        10.573688   19.826085   10.235047 C.3       2 CN         -0.011614 
     24 C24         9.813776   21.187325   10.296868 C.3       2 CN         -0.056009 
     25 C25        12.079972   20.166015   10.486223 C.3       2 CN         -0.056009 
     26 C26        10.124911   18.892648   11.397124 C.3       2 CN         -0.056009 
     27 C27        12.464538   17.755677    5.955975 C.3       2 CN          0.069483 
     28 O28        13.365359   17.030089    6.811532 O.3       2 CN         -0.390408 
     29 N29        10.432197   12.901702    9.078775 N.2       2 CN         -0.228269 
     30 C30        10.836626   12.884842   10.276137 C.2       2 CN          0.181916 
     31 S31        11.315110   14.496655   10.861096 S.3       2 CN         -0.058662 
     32 C32        10.852761   15.126295    9.241501 C.2       2 CN          0.000256 
     33 N33        10.899247   11.807683   11.004252 N.pl3     2 CN         -0.194102 
     34 C34        11.346177    9.901897    9.700412 C.2       1 BENZYL      0.279008 
     35 O35        10.484495   10.567926   10.480931 O.3       1 BENZYL     -0.205541 
     36 O36        11.022282    8.834376    9.205724 O.2       1 BENZYL     -0.263470 
     37 C37        12.706913   10.496817    9.439587 C.3       1 BENZYL      0.023159 
     38 H34        12.615594   11.363572    8.769376 H         1 BENZYL      0.033080 
     39 H35        13.355990    9.750761    8.957025 H         1 BENZYL      0.033080 
     40 H36        13.181407   10.810240   10.380957 H         1 BENZYL      0.033080 
     41 H1          9.850577   13.374980    6.501119 H         2 CN          0.032926 
     42 H2         10.773203   14.871212    6.460508 H         2 CN          0.032926 
     43 H3          8.468612   15.349738    5.787497 H         2 CN          0.029689 
     44 H4          8.949396   16.199459    7.242680 H         2 CN          0.029689 
     45 H5          8.130219   14.094212    9.490495 H         2 CN          0.036131 
     46 H6          6.399893   14.505446    9.528832 H         2 CN          0.036131 
     47 H7          5.693997   13.362472    7.334458 H         2 CN          0.032343 
     48 H8          6.879611   11.186583    7.307334 H         2 CN          0.023322 
     49 H9          7.114171   12.065240    8.822024 H         2 CN          0.023322 
     50 H10         8.424329   11.993038    7.621062 H         2 CN          0.023322 
     51 H11         7.824242   13.068294    5.145954 H         2 CN          0.023322 
     52 H12         6.366133   14.098791    5.023098 H         2 CN          0.023322 
     53 H13         6.206688   12.335026    5.196183 H         2 CN          0.023322 
     54 H14         7.964806   19.037994    6.422740 H         2 CN          0.063143 
     55 H15        12.389259   18.563245    8.502660 H         2 CN          0.062431 
     56 H16         8.603652   15.655208   11.160960 H         2 CN          0.216929 
     57 H17        10.749223   18.889943    4.050184 H         2 CN          0.027763 
     58 H18         8.982657   18.996616    4.215688 H         2 CN          0.027763 
     59 H19         9.776207   17.397833    4.286028 H         2 CN          0.027763 
     60 H20        10.147449   21.834967    9.471398 H         2 CN          0.023804 
     61 H21        10.011032   21.707482   11.246776 H         2 CN          0.023804 
     62 H22         8.726136   21.077183   10.220049 H         2 CN          0.023804 
     63 H23        12.205656   20.776300   11.394041 H         2 CN          0.023804 
     64 H24        12.495709   20.739919    9.643312 H         2 CN          0.023804 
     65 H25        12.682447   19.258220   10.641934 H         2 CN          0.023804 
     66 H26         9.036200   18.779131   11.449161 H         2 CN          0.023804 
     67 H27        10.447504   19.298271   12.368302 H         2 CN          0.023804 
     68 H28        10.577180   17.897065   11.270100 H         2 CN          0.023804 
     69 H29        13.024550   18.589626    5.506184 H         2 CN          0.060719 
     70 H30        12.132688   17.082235    5.149218 H         2 CN          0.060719 
     71 H31        12.956307   16.278047    7.227874 H         2 CN          0.209847 
     72 H32        10.925304   16.179391    8.981356 H         2 CN          0.071231 
     73 H33        11.236982   11.864389   11.976687 H         2 CN          0.182277 
@<TRIPOS>BOND
     1    1    2 1    
     2    2    3 1    
     3    3    4 1    
     4    4    5 1    
     5    5    6 1    
     6    6    7 2    
     7    8    7 1    
     8    9    8 1    
     9    4    9 1    
    10    4   10 1    
    11   10   11 1    
    12   10   12 1    
    13    8   13 2    
    14    7   14 1    
    15   14   15 1    
    16   15   16 ar   
    17   16   17 ar   
    18   17   18 ar   
    19   19   18 ar   
    20   20   19 ar   
    21   15   20 ar   
    22    6   21 1    
    23   17   22 1    
    24   20   23 1    
    25   23   24 1    
    26   23   25 1    
    27   23   26 1    
    28   18   27 1    
    29   27   28 1    
    30   29    1 1    
    31   30   31 1    
    32   30   29 2    
    33   31   32 1    
    34    1   32 2    
    35   30   33 1    
    36   35   33 1    
    37   35   34 1    
    38   34   36 2    
    39   34   37 1    
    40   37   38 1    
    41   37   39 1    
    42   37   40 1    
    43    2   41 1    
    44    2   42 1    
    45    3   43 1    
    46    3   44 1    
    47    5   45 1    
    48    5   46 1    
    49   10   47 1    
    50   11   48 1    
    51   11   49 1    
    52   11   50 1    
    53   12   51 1    
    54   12   52 1    
    55   12   53 1    
    56   16   54 1    
    57   19   55 1    
    58   21   56 1    
    59   22   57 1    
    60   22   58 1    
    61   22   59 1    
    62   24   60 1    
    63   24   61 1    
    64   24   62 1    
    65   25   63 1    
    66   25   64 1    
    67   25   65 1    
    68   26   66 1    
    69   26   67 1    
    70   26   68 1    
    71   27   69 1    
    72   27   70 1    
    73   28   71 1    
    74   32   72 1    
    75   33   73 1    
@<TRIPOS>SUBSTRUCTURE
     1 BENZYL     35 PERM              0 ****  ****    1 ROOT 
     2 CN         30 PERM              0 ****  ****    1  
@<TRIPOS>NORMAL
@<TRIPOS>FF_PBC
FORCE_FIELD_SETUP_FEATURE Force Field Setup information
v1.0  0 0.000000 0.000000 0.000000 0.000000 0.000000 0.000000 NONE 0 0 0 0 1 0 0 0 0 0 0 0 0
