#	Name:			H32
#	Creating user name:	ccollar
#	Creation time:		Mon Jan 17 15:37:03 2005

#	Modifying user name:	ccollar
#	Modification time:	Mon Jan 17 15:37:17 2005

@<TRIPOS>MOLECULE
H32
   67    69     1     1     0
SMALL
GASTEIGER


@<TRIPOS>ATOM
      1 C1         10.192028   13.970587    8.346465 C.2       1 AMINO       0.050325 
      2 C2          9.325575   13.713156    7.143119 C.3       1 AMINO      -0.007188 
      3 C3          8.052811   14.605070    7.056667 C.3       1 AMINO      -0.017100 
      4 C4          6.944003   14.533488    8.168221 C.3       1 AMINO       0.087692 
      5 C5          7.397552   15.168493    9.515867 C.3       1 AMINO       0.024947 
      6 C6          7.666782   16.639854    9.316937 C.2       1 AMINO       0.072142 
      7 C7          6.984281   17.322012    8.393715 C.2       1 AMINO       0.109797 
      8 C8          5.954783   16.622403    7.606422 C.2       1 AMINO       0.303213 
      9 O9          5.823582   15.287313    7.640018 O.3       1 AMINO      -0.303694 
     10 C10         6.306848   13.117075    8.407965 C.3       1 AMINO      -0.016540 
     11 C11         7.085468   12.150269    9.349210 C.3       1 AMINO      -0.060022 
     12 C12         5.912745   12.399663    7.084406 C.3       1 AMINO      -0.060022 
     13 O13         5.179664   17.266149    6.919240 O.2       1 AMINO      -0.258547 
     14 S14         7.288259   19.060116    8.107706 S.3       1 AMINO      -0.081048 
     15 C15         9.014032   18.883891    7.734886 C.ar      1 AMINO       0.016918 
     16 C16         9.360443   18.155180    6.595292 C.ar      1 AMINO      -0.044452 
     17 C17        10.654506   17.657021    6.426184 C.ar      1 AMINO      -0.044034 
     18 C18        11.605561   17.925121    7.418522 C.ar      1 AMINO      -0.018935 
     19 C19        11.262880   18.774831    8.478839 C.ar      1 AMINO      -0.051401 
     20 C20        10.018043   19.417569    8.559358 C.ar      1 AMINO      -0.027908 
     21 O21         8.579963   17.255437   10.077882 O.3       1 AMINO      -0.362719 
     22 C22        10.995041   16.825562    5.180041 C.3       1 AMINO      -0.039344 
     23 C23         9.805186   20.647659    9.496279 C.3       1 AMINO      -0.011614 
     24 C24         9.081161   21.788911    8.715124 C.3       1 AMINO      -0.056009 
     25 C25        11.158215   21.262357    9.987018 C.3       1 AMINO      -0.056009 
     26 C26         8.998890   20.250461   10.766587 C.3       1 AMINO      -0.056009 
     27 C27        13.005032   17.287076    7.341107 C.3       1 AMINO       0.069483 
     28 O28        13.951185   17.788064    8.303093 O.3       1 AMINO      -0.390408 
     29 C29        10.731888   13.053689    9.158407 C.2       1 AMINO      -0.000087 
     30 S30        11.708966   13.761970   10.489976 S.3       1 AMINO      -0.064256 
     31 C31        11.309647   15.357134    9.813329 C.2       1 AMINO       0.142976 
     32 N32        10.573089   15.286843    8.788233 N.2       1 AMINO      -0.233125 
     33 N       11.743476   16.498403   10.339178 N.3       1 AMINO      -0.280981 
     34 H34        12.798836   16.611037   10.135984 H         1 AMINO       0.125827 
     35 H35        11.579633   16.500002   11.405967 H         1 AMINO       0.125827 
     36 H1          9.079675   12.647781    7.049705 H         1 AMINO       0.032926 
     37 H2          9.963981   13.954455    6.277884 H         1 AMINO       0.032926 
     38 H3          7.571328   14.387745    6.089539 H         1 AMINO       0.029689 
     39 H4          8.421681   15.637041    6.988562 H         1 AMINO       0.029689 
     40 H5          8.282028   14.645069    9.898819 H         1 AMINO       0.036131 
     41 H6          6.597565   15.090065   10.267721 H         1 AMINO       0.036131 
     42 H7          5.354616   13.305154    8.938059 H         1 AMINO       0.032343 
     43 H8          6.529777   11.205035    9.452919 H         1 AMINO       0.023322 
     44 H9          7.198545   12.567372   10.360785 H         1 AMINO       0.023322 
     45 H10         8.079468   11.905557    8.964357 H         1 AMINO       0.023322 
     46 H11         5.293291   11.514142    7.297433 H         1 AMINO       0.023322 
     47 H12         6.799923   12.061416    6.532083 H         1 AMINO       0.023322 
     48 H13         5.328456   13.070407    6.435575 H         1 AMINO       0.023322 
     49 H14         8.600022   17.967505    5.844565 H         1 AMINO       0.063143 
     50 H15        11.993349   18.922596    9.258015 H         1 AMINO       0.062431 
     51 H16         9.027215   16.707724   10.712094 H         1 AMINO       0.216929 
     52 H17        11.514411   15.899043    5.463782 H         1 AMINO       0.027763 
     53 H18        11.643495   17.418016    4.517805 H         1 AMINO       0.027763 
     54 H19        10.091902   16.542598    4.618815 H         1 AMINO       0.027763 
     55 H20         9.650561   22.030750    7.804392 H         1 AMINO       0.023804 
     56 H21         9.002707   22.701602    9.325421 H         1 AMINO       0.023804 
     57 H22         8.059101   21.531356    8.417776 H         1 AMINO       0.023804 
     58 H23        11.669116   20.613969   10.714351 H         1 AMINO       0.023804 
     59 H24        10.998654   22.222996   10.500631 H         1 AMINO       0.023804 
     60 H25        11.829348   21.447439    9.133799 H         1 AMINO       0.023804 
     61 H26         7.980908   19.916198   10.532980 H         1 AMINO       0.023804 
     62 H27         8.914258   21.108259   11.451244 H         1 AMINO       0.023804 
     63 H28         9.515669   19.435388   11.295672 H         1 AMINO       0.023804 
     64 H29        13.425885   17.412522    6.330049 H         1 AMINO       0.060719 
     65 H30        12.891427   16.210088    7.536476 H         1 AMINO       0.060719 
     66 H31        14.161044   18.707210    8.165487 H         1 AMINO       0.209847 
     67 H32        10.608167   11.978377    9.041423 H         1 AMINO       0.071222 
@<TRIPOS>BOND
     1    1    2 1    
     2    2    3 1    
     3    3    4 1    
     4    4    5 1    
     5    5    6 1    
     6    6    7 2    
     7    8    7 1    
     8    9    8 1    
     9    4    9 1    
    10    4   10 1    
    11   10   11 1    
    12   10   12 1    
    13    8   13 2    
    14    7   14 1    
    15   14   15 1    
    16   15   16 ar   
    17   16   17 ar   
    18   17   18 ar   
    19   19   18 ar   
    20   20   19 ar   
    21   15   20 ar   
    22    6   21 1    
    23   17   22 1    
    24   20   23 1    
    25   23   24 1    
    26   23   25 1    
    27   23   26 1    
    28   18   27 1    
    29   27   28 1    
    30    1   29 2    
    31   30   29 1    
    32   31   30 1    
    33   31   32 2    
    34   32    1 1    
    35   33   34 1    
    36   33   35 1    
    37   33   31 1    
    38    2   36 1    
    39    2   37 1    
    40    3   38 1    
    41    3   39 1    
    42    5   40 1    
    43    5   41 1    
    44   10   42 1    
    45   11   43 1    
    46   11   44 1    
    47   11   45 1    
    48   12   46 1    
    49   12   47 1    
    50   12   48 1    
    51   16   49 1    
    52   19   50 1    
    53   21   51 1    
    54   22   52 1    
    55   22   53 1    
    56   22   54 1    
    57   24   55 1    
    58   24   56 1    
    59   24   57 1    
    60   25   58 1    
    61   25   59 1    
    62   25   60 1    
    63   26   61 1    
    64   26   62 1    
    65   26   63 1    
    66   27   64 1    
    67   27   65 1    
    68   28   66 1    
    69   29   67 1    
@<TRIPOS>SUBSTRUCTURE
     1 AMINO      33 PERM              0 ****  ****    0 ROOT 
@<TRIPOS>NORMAL
@<TRIPOS>FF_PBC
FORCE_FIELD_SETUP_FEATURE Force Field Setup information
v1.0  0 0.000000 0.000000 0.000000 0.000000 0.000000 0.000000 NONE 0 0 0 0 1 0 0 0 0 0 0 0 0
