#	Name:			H33
#	Creating user name:	ccollar
#	Creation time:		Mon Jan 17 15:43:15 2005

#	Modifying user name:	ccollar
#	Modification time:	Mon Jan 17 15:44:46 2005

@<TRIPOS>MOLECULE
H33
   73    76     1     1     0
SMALL
GASTEIGER


@<TRIPOS>ATOM
      1 C1         10.058204   13.959451    9.104771 C.ar      1 <1>        -0.046594 
      2 C2          9.433874   13.639218    7.735812 C.3       1 <1>        -0.025019 
      3 C3          8.207752   14.513683    7.328412 C.3       1 <1>        -0.018536 
      4 C4          6.895307   14.511556    8.192949 C.3       1 <1>         0.087645 
      5 C5          7.085825   15.180376    9.586588 C.3       1 <1>         0.024946 
      6 C6          7.423615   16.640994    9.415170 C.2       1 <1>         0.072142 
      7 C7          6.953199   17.310396    8.360136 C.2       1 <1>         0.109797 
      8 C8          6.102924   16.606222    7.384872 C.2       1 <1>         0.303213 
      9 O9          5.934007   15.275499    7.421302 O.3       1 <1>        -0.303695 
     10 C10         6.166773   13.125157    8.335586 C.3       1 <1>        -0.016541 
     11 C11         6.692408   12.160186    9.438772 C.3       1 <1>        -0.060022 
     12 C12         6.027838   12.369894    6.982117 C.3       1 <1>        -0.060022 
     13 O13         5.512289   17.244014    6.529435 O.2       1 <1>        -0.258547 
     14 S14         7.312092   19.044818    8.122325 S.3       1 <1>        -0.081048 
     15 C15         9.037092   18.879607    7.742560 C.ar      1 <1>         0.016918 
     16 C16         9.378639   18.111892    6.626119 C.ar      1 <1>        -0.044452 
     17 C17        10.689080   17.675246    6.423327 C.ar      1 <1>        -0.044034 
     18 C18        11.638446   17.978251    7.405080 C.ar      1 <1>        -0.018935 
     19 C19        11.323989   18.922789    8.389064 C.ar      1 <1>        -0.051401 
     20 C20        10.040457   19.477190    8.526892 C.ar      1 <1>        -0.027908 
     21 O21         8.176775   17.261110   10.333065 O.3       1 <1>        -0.362719 
     22 C22        11.045885   16.883703    5.157898 C.3       1 <1>        -0.039344 
     23 C23         9.782501   20.690232    9.479389 C.3       1 <1>        -0.011614 
     24 C24         9.049718   21.824221    8.696545 C.3       1 <1>        -0.056009 
     25 C25        11.104824   21.334613   10.013783 C.3       1 <1>        -0.056009 
     26 C26         8.963437   20.267812   10.735623 C.3       1 <1>        -0.056009 
     27 C27        13.011393   17.289690    7.434759 C.3       1 <1>         0.069483 
     28 O28        13.450190   17.141808    8.798675 O.3       1 <1>        -0.390408 
     29 C29        10.277096   12.934810   10.044222 C.ar      1 <1>        -0.056785 
     30 C30        10.773747   13.200527   11.327496 C.ar      1 <1>        -0.039721 
     31 C31        11.095098   14.524064   11.619922 C.ar      1 <1>         0.038198 
     32 C32        10.420578   15.279256    9.414438 C.ar      1 <1>        -0.049599 
     33 C33        10.931800   15.526529   10.686165 C.ar      1 <1>        -0.002455 
     34 C34        11.414528   16.751039   11.420672 C.2       1 <1>        -0.038999 
     35 C35        11.776757   16.340502   12.647590 C.2       1 <1>        -0.005606 
     36 N36        11.587081   15.050090   12.757826 N.pl3     1 <1>        -0.320055 
     37 H1          9.182733   12.574678    7.644009 H         1 <1>         0.031407 
     38 H2         10.240953   13.821683    7.007272 H         1 <1>         0.031407 
     39 H3          7.929944   14.215170    6.305041 H         1 <1>         0.029641 
     40 H4          8.566866   15.545904    7.237401 H         1 <1>         0.029641 
     41 H5          7.857809   14.651675   10.158326 H         1 <1>         0.036131 
     42 H6          6.147666   15.141475   10.160867 H         1 <1>         0.036131 
     43 H7          5.134928   13.364903    8.653226 H         1 <1>         0.032343 
     44 H8          6.663654   12.617160   10.438546 H         1 <1>         0.023322 
     45 H9          7.713471   11.827244    9.236056 H         1 <1>         0.023322 
     46 H10         6.057239   11.261151    9.478692 H         1 <1>         0.023322 
     47 H11         5.623071   13.033268    6.202168 H         1 <1>         0.023322 
     48 H12         5.340185   11.515914    7.087504 H         1 <1>         0.023322 
     49 H13         6.997982   11.978104    6.645324 H         1 <1>         0.023322 
     50 H14         8.604097   17.844221    5.914715 H         1 <1>         0.063143 
     51 H15        12.129722   19.208096    9.048465 H         1 <1>         0.062431 
     52 H16         8.437570   16.732349   11.079141 H         1 <1>         0.216929 
     53 H17        10.325033   17.081290    4.350254 H         1 <1>         0.027763 
     54 H18        11.030877   15.807826    5.386027 H         1 <1>         0.027763 
     55 H19        12.044712   17.167700    4.794340 H         1 <1>         0.027763 
     56 H20         8.046804   21.541212    8.359222 H         1 <1>         0.023804 
     57 H21         9.639949   22.100425    7.809150 H         1 <1>         0.023804 
     58 H22         8.925751   22.721737    9.321716 H         1 <1>         0.023804 
     59 H23        11.776918   21.595184    9.181274 H         1 <1>         0.023804 
     60 H24        11.630643   20.666525   10.712889 H         1 <1>         0.023804 
     61 H25        10.901164   22.261603   10.572011 H         1 <1>         0.023804 
     62 H26         7.939966   19.956826   10.498915 H         1 <1>         0.023804 
     63 H27         8.884399   21.105751   11.445092 H         1 <1>         0.023804 
     64 H28         9.467313   19.433207   11.245114 H         1 <1>         0.023804 
     65 H29        13.718564   17.906753    6.856778 H         1 <1>         0.060719 
     66 H30        12.946740   16.286975    6.981963 H         1 <1>         0.060719 
     67 H31        14.302437   16.723812    8.879220 H         1 <1>         0.209847 
     68 H32        10.067200   11.903565    9.783066 H         1 <1>         0.062086 
     69 H33        10.908038   12.415760   12.063971 H         1 <1>         0.063631 
     70 H34        10.314611   16.091155    8.710413 H         1 <1>         0.062673 
     71 H35        11.457460   17.764403   11.028565 H         1 <1>         0.063645 
     72 H36        12.169718   16.994600   13.426934 H         1 <1>         0.078137 
     73 H37        11.792598   14.502795   13.607554 H         1 <1>         0.151622 
@<TRIPOS>BOND
     1    2    1 1    
     2    2    3 1    
     3    3    4 1    
     4    4    5 1    
     5    5    6 1    
     6    6    7 2    
     7    7    8 1    
     8    8    9 1    
     9    4    9 1    
    10    4   10 1    
    11   10   11 1    
    12   10   12 1    
    13    8   13 2    
    14    7   14 1    
    15   14   15 1    
    16   15   16 ar   
    17   16   17 ar   
    18   17   18 ar   
    19   18   19 ar   
    20   19   20 ar   
    21   15   20 ar   
    22    6   21 1    
    23   17   22 1    
    24   20   23 1    
    25   23   24 1    
    26   23   25 1    
    27   23   26 1    
    28   18   27 1    
    29   27   28 1    
    30    1   29 ar   
    31   29   30 ar   
    32   30   31 ar   
    33    1   32 ar   
    34   32   33 ar   
    35   31   33 ar   
    36   33   34 1    
    37   34   35 2    
    38   35   36 1    
    39   31   36 1    
    40    2   37 1    
    41    2   38 1    
    42    3   39 1    
    43    3   40 1    
    44    5   41 1    
    45    5   42 1    
    46   10   43 1    
    47   11   44 1    
    48   11   45 1    
    49   11   46 1    
    50   12   47 1    
    51   12   48 1    
    52   12   49 1    
    53   16   50 1    
    54   19   51 1    
    55   21   52 1    
    56   22   53 1    
    57   22   54 1    
    58   22   55 1    
    59   24   56 1    
    60   24   57 1    
    61   24   58 1    
    62   25   59 1    
    63   25   60 1    
    64   25   61 1    
    65   26   62 1    
    66   26   63 1    
    67   26   64 1    
    68   27   65 1    
    69   27   66 1    
    70   28   67 1    
    71   29   68 1    
    72   30   69 1    
    73   32   70 1    
    74   34   71 1    
    75   35   72 1    
    76   36   73 1    
@<TRIPOS>SUBSTRUCTURE
     1 ****        2 TEMP              0 ****  ****    0 ROOT 
@<TRIPOS>NORMAL
@<TRIPOS>FF_PBC
FORCE_FIELD_SETUP_FEATURE Force Field Setup information
v1.0  0 0.000000 0.000000 0.000000 0.000000 0.000000 0.000000 NONE 0 0 0 0 1 0 0 0 0 0 0 0 0
