#	Name:			H35
#	Creating user name:	ccollar
#	Creation time:		Mon Jan 17 15:46:37 2005

#	Modifying user name:	ccollar
#	Modification time:	Mon Jan 17 15:48:30 2005

@<TRIPOS>MOLECULE
H35
   71    74     1     1     0
SMALL
GASTEIGER


@<TRIPOS>ATOM
      1 C1          9.968279   13.713089    8.213228 C.2       1 <1>         0.079599 
      2 C2          9.026965   13.484798    7.065000 C.3       1 <1>        -0.001303 
      3 C3          7.819891   14.464840    7.028503 C.3       1 <1>        -0.016616 
      4 C4          6.755428   14.470154    8.183595 C.3       1 <1>         0.087708 
      5 C5          7.287442   15.065946    9.518652 C.3       1 <1>         0.024947 
      6 C6          7.635759   16.514371    9.335690 C.2       1 <1>         0.072142 
      7 C7          6.996801   17.267850    8.429191 C.2       1 <1>         0.109797 
      8 C8          5.915418   16.632892    7.650110 C.2       1 <1>         0.303213 
      9 O9          5.682288   15.310457    7.691933 O.3       1 <1>        -0.303694 
     10 C10         6.034563   13.099444    8.448540 C.3       1 <1>        -0.016540 
     11 C11         6.778114   12.096352    9.381921 C.3       1 <1>        -0.060022 
     12 C12         5.556964   12.400814    7.142601 C.3       1 <1>        -0.060022 
     13 O13         5.183764   17.325664    6.962885 O.2       1 <1>        -0.258547 
     14 S14         7.340990   19.002920    8.117082 S.3       1 <1>        -0.081048 
     15 C15         9.055810   18.907859    7.659922 C.ar      1 <1>         0.016918 
     16 C16         9.418069   18.006524    6.657033 C.ar      1 <1>        -0.044452 
     17 C17        10.738459   17.566734    6.538788 C.ar      1 <1>        -0.044034 
     18 C18        11.687107   18.075846    7.433260 C.ar      1 <1>        -0.018935 
     19 C19        11.341422   19.161382    8.248121 C.ar      1 <1>        -0.051401 
     20 C20        10.041888   19.691779    8.283212 C.ar      1 <1>        -0.027908 
     21 O21         8.595435   16.975048   10.151336 O.3       1 <1>        -0.362719 
     22 C22        11.118160   16.548236    5.455030 C.3       1 <1>        -0.039344 
     23 C23         9.746568   21.069015    8.957158 C.3       1 <1>        -0.011614 
     24 C24         8.884659   21.950249    7.999551 C.3       1 <1>        -0.056009 
     25 C25        11.048981   21.891641    9.232113 C.3       1 <1>        -0.056009 
     26 C26         9.032992   20.883550   10.328365 C.3       1 <1>        -0.056009 
     27 C27        13.091393   17.456417    7.529603 C.3       1 <1>         0.069483 
     28 O28        13.718332   17.762215    8.790298 O.3       1 <1>        -0.390408 
     29 N29        10.293132   14.883084    8.590316 N.2       1 <1>        -0.244013 
     30 S30        10.729046   12.359471    9.134772 S.3       1 <1>        -0.072065 
     31 C31        11.494902   13.676225   10.038625 C.ar      1 <1>         0.039202 
     32 C32        11.137199   14.950791    9.628646 C.ar      1 <1>         0.078475 
     33 C33        11.624069   16.093154   10.261257 C.ar      1 <1>        -0.035199 
     34 C34        12.538861   15.912706   11.305570 C.ar      1 <1>        -0.059686 
     35 C35        12.917935   14.625287   11.714161 C.ar      1 <1>        -0.060580 
     36 C36        12.393551   13.486536   11.088924 C.ar      1 <1>        -0.045897 
     37 H1          9.628605   13.643161    6.155801 H         1 <1>         0.033438 
     38 H2          8.705612   12.437101    7.034032 H         1 <1>         0.033438 
     39 H3          7.286338   14.282970    6.081596 H         1 <1>         0.029705 
     40 H4          8.257302   15.467756    6.947586 H         1 <1>         0.029705 
     41 H5          8.158238   14.508764    9.887049 H         1 <1>         0.036131 
     42 H6          6.506137   15.031626   10.293067 H         1 <1>         0.036131 
     43 H7          5.109361   13.351382    8.999514 H         1 <1>         0.032343 
     44 H8          6.186357   11.173085    9.482601 H         1 <1>         0.023322 
     45 H9          6.906885   12.505460   10.395122 H         1 <1>         0.023322 
     46 H10         7.765400   11.815825    9.002060 H         1 <1>         0.023322 
     47 H11         5.000326   13.106007    6.506004 H         1 <1>         0.023322 
     48 H12         4.885729   11.560450    7.380381 H         1 <1>         0.023322 
     49 H13         6.402046   11.999610    6.567317 H         1 <1>         0.023322 
     50 H14         8.655755   17.644703    5.975977 H         1 <1>         0.063143 
     51 H15        12.123902   19.579586    8.863374 H         1 <1>         0.062431 
     52 H16         8.801476   17.898953   10.091609 H         1 <1>         0.216929 
     53 H17        10.333489   16.460034    4.688800 H         1 <1>         0.027763 
     54 H18        11.264254   15.561831    5.917577 H         1 <1>         0.027763 
     55 H19        12.048277   16.856167    4.955080 H         1 <1>         0.027763 
     56 H20         8.732668   22.957883    8.415834 H         1 <1>         0.023804 
     57 H21         7.886045   21.540613    7.813195 H         1 <1>         0.023804 
     58 H22         9.396956   22.050957    7.030219 H         1 <1>         0.023804 
     59 H23        11.651436   21.451377   10.040863 H         1 <1>         0.023804 
     60 H24        10.813850   22.917946    9.554079 H         1 <1>         0.023804 
     61 H25        11.661904   21.962376    8.319948 H         1 <1>         0.023804 
     62 H26         8.030891   20.449479   10.230971 H         1 <1>         0.023804 
     63 H27         8.917559   21.853911   10.835395 H         1 <1>         0.023804 
     64 H28         9.633670   20.225512   10.974819 H         1 <1>         0.023804 
     65 H29        13.695703   17.849828    6.695986 H         1 <1>         0.060719 
     66 H30        13.013882   16.360563    7.439123 H         1 <1>         0.060719 
     67 H31        14.590290   17.388656    8.879119 H         1 <1>         0.209847 
     68 H32        11.302525   17.079832    9.956603 H         1 <1>         0.063905 
     69 H33        12.957709   16.781936   11.803428 H         1 <1>         0.061823 
     70 H34        13.627677   14.508793   12.527571 H         1 <1>         0.061793 
     71 H35        12.674393   12.487975   11.406860 H         1 <1>         0.062928 
@<TRIPOS>BOND
     1    1   29 2    
     2    2    3 1    
     3    3    4 1    
     4    4    5 1    
     5    5    6 1    
     6    6    7 2    
     7    7    8 1    
     8    8    9 1    
     9    4    9 1    
    10    4   10 1    
    11   10   11 1    
    12   10   12 1    
    13    8   13 2    
    14    7   14 1    
    15   14   15 1    
    16   15   16 ar   
    17   16   17 ar   
    18   17   18 ar   
    19   18   19 ar   
    20   19   20 ar   
    21   15   20 ar   
    22    6   21 1    
    23   17   22 1    
    24   20   23 1    
    25   23   24 1    
    26   23   25 1    
    27   23   26 1    
    28   18   27 1    
    29   27   28 1    
    30    2    1 1    
    31    1   30 1    
    32   30   31 1    
    33   31   32 ar   
    34   29   32 1    
    35   32   33 ar   
    36   33   34 ar   
    37   34   35 ar   
    38   35   36 ar   
    39   31   36 ar   
    40    2   37 1    
    41    2   38 1    
    42    3   39 1    
    43    3   40 1    
    44    5   41 1    
    45    5   42 1    
    46   10   43 1    
    47   11   44 1    
    48   11   45 1    
    49   11   46 1    
    50   12   47 1    
    51   12   48 1    
    52   12   49 1    
    53   16   50 1    
    54   19   51 1    
    55   21   52 1    
    56   22   53 1    
    57   22   54 1    
    58   22   55 1    
    59   24   56 1    
    60   24   57 1    
    61   24   58 1    
    62   25   59 1    
    63   25   60 1    
    64   25   61 1    
    65   26   62 1    
    66   26   63 1    
    67   26   64 1    
    68   27   65 1    
    69   27   66 1    
    70   28   67 1    
    71   33   68 1    
    72   34   69 1    
    73   35   70 1    
    74   36   71 1    
@<TRIPOS>SUBSTRUCTURE
     1 ****        2 TEMP              0 ****  ****    0 ROOT 
@<TRIPOS>NORMAL
@<TRIPOS>FF_PBC
FORCE_FIELD_SETUP_FEATURE Force Field Setup information
v1.0  0 0.000000 0.000000 0.000000 0.000000 0.000000 0.000000 NONE 0 0 0 0 1 0 0 0 0 0 0 0 0
