#	Name:			Ha1
#	Creating user name:	ccollar
#	Creation time:		Fri Jul 29 17:12:42 2005

#	Modifying user name:	ccollar
#	Modification time:	Fri Jul 29 17:16:42 2005

@<TRIPOS>MOLECULE
Ha1
   33    35     1     1     1
SMALL
GASTEIGER


@<TRIPOS>ATOM
      1 C          -0.445285   -1.502561   -0.121787 C.ar      1 PHENYL     -0.061122 
      2 C           0.898402   -1.123886   -0.049249 C.ar      1 PHENYL     -0.052111 
      3 C           1.255136    0.219288    0.120346 C.ar      1 PHENYL      0.005667 
      4 C           0.241346    1.176014    0.262118 C.ar      1 PHENYL     -0.052111 
      5 C          -1.103277    0.804093    0.168068 C.ar      1 PHENYL     -0.061122 
      6 C          -1.449118   -0.535821   -0.024590 C.ar      1 PHENYL     -0.061721 
      7 C7          2.727640    0.579655    0.151106 C.2       1 PHENYL      0.096071 
      8 C8          3.176293    1.781577   -0.236171 C.2       1 PHENYL      0.000577 
      9 C9          4.606295    2.115112   -0.185603 C.2       1 PHENYL      0.094557 
     10 C10         5.460241    1.176029    0.246069 C.2       1 PHENYL      0.114274 
     11 C11         4.897997   -0.131303    0.633758 C.2       1 PHENYL      0.307986 
     12 O12         3.581018   -0.363115    0.576584 O.3       1 PHENYL     -0.272818 
     13 O13         5.631415   -1.029931    1.011067 O.2       1 PHENYL     -0.258155 
     14 O14         5.001890    3.339907   -0.567287 O.3       1 PHENYL     -0.358446 
     15 S15         7.228404    1.432969    0.373071 S.3       1 PHENYL     -0.081014 
     16 C16         7.381840    1.022385    2.090434 C.ar      1 PHENYL      0.012987 
     17 C17         6.810195    1.851759    3.059607 C.ar      1 PHENYL     -0.047980 
     18 C18         6.920276    1.523096    4.413924 C.ar      1 PHENYL     -0.060709 
     19 C19         7.603910    0.365758    4.798556 C.ar      1 PHENYL     -0.061692 
     20 C20         8.177129   -0.462814    3.829196 C.ar      1 PHENYL     -0.060709 
     21 C21         8.065842   -0.134191    2.474963 C.ar      1 PHENYL     -0.047980 
     22 H1         -0.709205   -2.547440   -0.255038 H         1 PHENYL      0.061777 
     23 H2          1.668035   -1.885221   -0.130185 H         1 PHENYL      0.062424 
     24 H3          0.478963    2.215373    0.457564 H         1 PHENYL      0.062424 
     25 H4         -1.881825    1.557015    0.247835 H         1 PHENYL      0.061777 
     26 H5         -2.493303   -0.824821   -0.096901 H         1 PHENYL      0.061759 
     27 H6          2.516220    2.561102   -0.610755 H         1 PHENYL      0.066983 
     28 H7          5.931073    3.535261   -0.527511 H         1 PHENYL      0.217363 
     29 H8          6.280518    2.750444    2.760023 H         1 PHENYL      0.062862 
     30 H9          6.474962    2.166381    5.166814 H         1 PHENYL      0.061791 
     31 H10         7.689626    0.110179    5.850375 H         1 PHENYL      0.061759 
     32 H11         8.707981   -1.361713    4.127658 H         1 PHENYL      0.061791 
     33 H12         8.507820   -0.777354    1.720844 H         1 PHENYL      0.062862 
@<TRIPOS>BOND
     1    1    2 ar   
     2    1    6 ar   
     3    6    5 ar   
     4    5    4 ar   
     5    4    3 ar   
     6    3    2 ar   
     7    3    7 1    
     8    7    8 2    
     9    8    9 1    
    10    9   10 2    
    11   10   11 1    
    12   11   12 1    
    13    7   12 1    
    14   11   13 2    
    15    9   14 1    
    16   10   15 1    
    17   15   16 1    
    18   16   17 ar   
    19   17   18 ar   
    20   18   19 ar   
    21   19   20 ar   
    22   20   21 ar   
    23   16   21 ar   
    24    1   22 1    
    25    2   23 1    
    26    4   24 1    
    27    5   25 1    
    28    6   26 1    
    29    8   27 1    
    30   14   28 1    
    31   17   29 1    
    32   18   30 1    
    33   19   31 1    
    34   20   32 1    
    35   21   33 1    
@<TRIPOS>SUBSTRUCTURE
     1 PHENYL      1 PERM              0 ****  ****    0 ROOT 
@<TRIPOS>SET
ATOM$CYAN       STATIC     ATOMS    COLORGROUP SYSTEM 
33 1 2 3 4 5 6 7 8 9 10 11 12 13 14 15 16 17 18 19 \
 20 21 22 23 24 25 26 27 28 29 30 31 32 33
@<TRIPOS>NORMAL
@<TRIPOS>FF_PBC
FORCE_FIELD_SETUP_FEATURE Force Field Setup information
v1.0  0 0.000000 0.000000 0.000000 0.000000 0.000000 0.000000 NONE 0 0 0 0 1 0 0 0 0 0 0 0 0
