#	Name:			Ha10
#	Creating user name:	ccollar
#	Creation time:		Fri Jul 29 17:25:04 2005

#	Modifying user name:	ccollar
#	Modification time:	Fri Jul 29 19:45:23 2005

@<TRIPOS>MOLECULE
Ha10
   68    71     1     1     1
SMALL
GASTEIGER


@<TRIPOS>ATOM
      1 C1         14.891935   -9.632910    2.675922 C.ar      1 <1>        -0.061742 
      2 C2         14.642454   -8.308815    2.304988 C.ar      1 <1>        -0.061501 
      3 C3         13.346132   -7.791925    2.385764 C.ar      1 <1>        -0.058571 
      4 C4         12.289013   -8.600182    2.819829 C.ar      1 <1>        -0.047254 
      5 C5         12.543259   -9.926518    3.186234 C.ar      1 <1>        -0.058571 
      6 C6         13.841099  -10.441469    3.117755 C.ar      1 <1>        -0.061501 
      7 C7         10.862367   -8.039471    2.901097 C.3       1 <1>        -0.024728 
      8 C8         10.586074   -7.565765    4.351901 C.3       1 <1>        -0.014588 
      9 C9          9.207863   -6.845179    4.474991 C.3       1 <1>         0.110179 
     10 C10         8.084984   -7.797397    4.000279 C.ar      1 <1>        -0.014777 
     11 C11         7.880568   -9.033522    4.629625 C.ar      1 <1>        -0.054348 
     12 C12         6.879520   -9.905848    4.192622 C.ar      1 <1>        -0.043770 
     13 C13         6.059490   -9.553416    3.120016 C.ar      1 <1>         0.012916 
     14 C14         6.245149   -8.320426    2.490052 C.ar      1 <1>        -0.043770 
     15 C15         7.247629   -7.450987    2.930058 C.ar      1 <1>        -0.054348 
     16 C16         8.921571   -6.406190    5.937135 C.3       1 <1>         0.028875 
     17 C17         9.928574   -5.354285    6.332175 C.2       1 <1>         0.072466 
     18 C18        10.444725   -4.540400    5.406065 C.2       1 <1>         0.109818 
     19 C19         9.984844   -4.661243    4.010714 C.2       1 <1>         0.303514 
     20 O20         9.233509   -5.694151    3.601414 O.3       1 <1>        -0.299209 
     21 O21        10.290831   -5.241811    7.616960 O.3       1 <1>        -0.362708 
     22 O22        10.270928   -3.794050    3.202390 O.2       1 <1>        -0.258537 
     23 S23        11.667073   -3.303246    5.822062 S.3       1 <1>        -0.081048 
     24 C24        12.798654   -4.387873    6.656151 C.ar      1 <1>         0.016900 
     25 C25        13.409372   -5.389348    5.895512 C.ar      1 <1>        -0.044781 
     26 C26        14.038837   -6.472267    6.510847 C.ar      1 <1>        -0.049381 
     27 C27        14.052295   -6.517384    7.905848 C.ar      1 <1>        -0.058497 
     28 C28        13.551099   -5.444962    8.649495 C.ar      1 <1>        -0.056764 
     29 C29        13.059435   -4.281510    8.034916 C.ar      1 <1>        -0.028236 
     30 C30        14.683047   -7.578204    5.667889 C.3       1 <1>        -0.039675 
     31 C31        12.847645   -2.969684    8.855846 C.3       1 <1>        -0.011623 
     32 C32        11.335273   -2.702052    9.110858 C.3       1 <1>        -0.056009 
     33 C33        13.506584   -1.765872    8.111584 C.3       1 <1>        -0.056009 
     34 C34        13.538359   -3.026393   10.259011 C.3       1 <1>        -0.056009 
     35 N35         5.052329  -10.442890    2.682328 N.3       1 <1>        -0.302255 
     36 H1         15.899990  -10.032414    2.621038 H         1 <1>         0.061758 
     37 H2         15.456477   -7.680774    1.955923 H         1 <1>         0.061766 
     38 H3         13.166354   -6.757306    2.111259 H         1 <1>         0.062029 
     39 H4         11.732153  -10.561659    3.527981 H         1 <1>         0.062029 
     40 H5         14.033115  -11.470015    3.407728 H         1 <1>         0.061766 
     41 H6         10.144080   -8.819326    2.602344 H         1 <1>         0.031417 
     42 H7         10.752060   -7.199212    2.197504 H         1 <1>         0.031417 
     43 H8         11.397878   -6.883679    4.638321 H         1 <1>         0.029969 
     44 H9         10.645794   -8.431588    5.028196 H         1 <1>         0.029969 
     45 H10         8.494046   -9.340678    5.468365 H         1 <1>         0.062168 
     46 H11         6.733172  -10.862319    4.683853 H         1 <1>         0.063318 
     47 H12         5.608328   -8.039441    1.657391 H         1 <1>         0.063318 
     48 H13         7.359105   -6.500770    2.419243 H         1 <1>         0.062168 
     49 H14         8.983670   -7.279393    6.602773 H         1 <1>         0.036464 
     50 H15         7.912235   -5.973748    6.013902 H         1 <1>         0.036464 
     51 H16         9.869739   -5.839173    8.224818 H         1 <1>         0.216929 
     52 H17        13.381263   -5.328742    4.812486 H         1 <1>         0.063133 
     53 H18        14.454503   -7.386453    8.417210 H         1 <1>         0.062029 
     54 H19        13.559673   -5.558245    9.724705 H         1 <1>         0.062088 
     55 H20        13.892373   -8.245402    5.294888 H         1 <1>         0.027754 
     56 H21        15.399560   -8.168967    6.257835 H         1 <1>         0.027754 
     57 H22        15.218304   -7.136033    4.814647 H         1 <1>         0.027754 
     58 H23        10.772708   -2.521819    8.187385 H         1 <1>         0.023804 
     59 H24        11.204743   -1.815676    9.750478 H         1 <1>         0.023804 
     60 H25        10.885474   -3.566158    9.622798 H         1 <1>         0.023804 
     61 H26        14.566369   -1.990049    7.914742 H         1 <1>         0.023804 
     62 H27        13.455101   -0.847560    8.716345 H         1 <1>         0.023804 
     63 H28        13.027513   -1.529268    7.155741 H         1 <1>         0.023804 
     64 H29        13.030506   -3.724730   10.940880 H         1 <1>         0.023804 
     65 H30        13.513495   -2.045198   10.757899 H         1 <1>         0.023804 
     66 H31        14.594604   -3.321231   10.158596 H         1 <1>         0.023804 
     67 H32         5.227167  -10.727013    1.654353 H         1 <1>         0.123921 
     68 H33         4.080137   -9.980115    2.775448 H         1 <1>         0.123921 
@<TRIPOS>BOND
     1    2    1 ar   
     2    2    3 ar   
     3    3    4 ar   
     4    4    5 ar   
     5    5    6 ar   
     6    1    6 ar   
     7    4    7 1    
     8    7    8 1    
     9    8    9 1    
    10    9   10 1    
    11   10   11 ar   
    12   11   12 ar   
    13   12   13 ar   
    14   13   14 ar   
    15   14   15 ar   
    16   10   15 ar   
    17    9   16 1    
    18   16   17 1    
    19   17   18 2    
    20   18   19 1    
    21   19   20 1    
    22    9   20 1    
    23   17   21 1    
    24   19   22 2    
    25   18   23 1    
    26   23   24 1    
    27   24   25 ar   
    28   25   26 ar   
    29   26   27 ar   
    30   27   28 ar   
    31   28   29 ar   
    32   24   29 ar   
    33   26   30 1    
    34   29   31 1    
    35   31   32 1    
    36   31   33 1    
    37   31   34 1    
    38   13   35 1    
    39    1   36 1    
    40    2   37 1    
    41    3   38 1    
    42    5   39 1    
    43    6   40 1    
    44    7   41 1    
    45    7   42 1    
    46    8   43 1    
    47    8   44 1    
    48   11   45 1    
    49   12   46 1    
    50   14   47 1    
    51   15   48 1    
    52   16   49 1    
    53   16   50 1    
    54   21   51 1    
    55   25   52 1    
    56   27   53 1    
    57   28   54 1    
    58   30   55 1    
    59   30   56 1    
    60   30   57 1    
    61   32   58 1    
    62   32   59 1    
    63   32   60 1    
    64   33   61 1    
    65   33   62 1    
    66   33   63 1    
    67   34   64 1    
    68   34   65 1    
    69   34   66 1    
    70   35   67 1    
    71   35   68 1    
@<TRIPOS>SUBSTRUCTURE
     1 ****        2 TEMP              0 ****  ****    0 ROOT 
@<TRIPOS>SET
ATOM$CYAN       STATIC     ATOMS    COLORGROUP SYSTEM 
68 1 2 3 4 5 6 7 8 9 10 11 12 13 14 15 16 17 18 19 \
 20 21 22 23 24 25 26 27 28 29 30 31 32 33 34 35 36 37 \
 38 39 40 41 42 43 44 45 46 47 48 49 50 51 52 53 54 55 \
 56 57 58 59 60 61 62 63 64 65 66 67 68
@<TRIPOS>NORMAL
@<TRIPOS>FF_PBC
FORCE_FIELD_SETUP_FEATURE Force Field Setup information
v1.0  0 0.000000 0.000000 0.000000 0.000000 0.000000 0.000000 NONE 0 0 0 0 1 0 0 0 0 0 0 0 0
