#	Name:			Ha11
#	Creating user name:	ccollar
#	Creation time:		Fri Jul 29 17:25:04 2005

#	Modifying user name:	ccollar
#	Modification time:	Fri Jul 29 19:48:44 2005

@<TRIPOS>MOLECULE
Ha11
   74    77     1     1     1
SMALL
GASTEIGER


@<TRIPOS>ATOM
      1 C1         14.464339   -7.714532    1.141115 C.ar      1 <1>        -0.061742 
      2 C2         13.933906   -6.551079    0.577140 C.ar      1 <1>        -0.061501 
      3 C3         12.569425   -6.273212    0.699981 C.ar      1 <1>        -0.058571 
      4 C4         11.724379   -7.164914    1.370753 C.ar      1 <1>        -0.047254 
      5 C5         12.259589   -8.330530    1.930169 C.ar      1 <1>        -0.058571 
      6 C6         13.626010   -8.603974    1.818859 C.ar      1 <1>        -0.061501 
      7 C7         10.223917   -6.867837    1.499642 C.3       1 <1>        -0.024728 
      8 C8          9.958362   -6.184713    2.866535 C.3       1 <1>        -0.014588 
      9 C9          8.478019   -5.711478    3.001264 C.3       1 <1>         0.110179 
     10 C10         7.533730   -6.923017    2.817572 C.ar      1 <1>        -0.014716 
     11 C11         7.608249   -8.025901    3.680449 C.ar      1 <1>        -0.053380 
     12 C12         6.764704   -9.127957    3.512982 C.ar      1 <1>        -0.031330 
     13 C13         5.827104   -9.140672    2.479878 C.ar      1 <1>         0.076292 
     14 C14         5.742000   -8.051447    1.611805 C.ar      1 <1>        -0.031330 
     15 C15         6.585516   -6.950080    1.784481 C.ar      1 <1>        -0.053380 
     16 C16         8.211544   -5.057065    4.384641 C.3       1 <1>         0.028875 
     17 C17         9.018830   -3.786002    4.482186 C.2       1 <1>         0.072466 
     18 C18         9.303080   -3.087121    3.378908 C.2       1 <1>         0.109818 
     19 C19         8.782008   -3.554819    2.081751 C.2       1 <1>         0.303514 
     20 O20         8.219388   -4.764161    1.941011 O.3       1 <1>        -0.299209 
     21 O21         9.438079   -3.364975    5.682820 O.3       1 <1>        -0.362708 
     22 O22         8.838771   -2.823164    1.107740 O.2       1 <1>        -0.258537 
     23 S23        10.286824   -1.595153    3.441747 S.3       1 <1>        -0.081048 
     24 C24        11.660580   -2.277907    4.335728 C.ar      1 <1>         0.016900 
     25 C25        12.402144   -3.282688    3.707226 C.ar      1 <1>        -0.044781 
     26 C26        13.270139   -4.095332    4.437833 C.ar      1 <1>        -0.049381 
     27 C27        13.385526   -3.865503    5.809727 C.ar      1 <1>        -0.058497 
     28 C28        12.735936   -2.776286    6.397853 C.ar      1 <1>        -0.056764 
     29 C29        11.987082   -1.861225    5.639597 C.ar      1 <1>        -0.028236 
     30 C30        14.059233   -5.210676    3.743571 C.3       1 <1>        -0.039675 
     31 C31        11.579021   -0.474489    6.231309 C.3       1 <1>        -0.011623 
     32 C32        10.063816   -0.437109    6.587225 C.3       1 <1>        -0.056009 
     33 C33        11.940193    0.660164    5.221661 C.3       1 <1>        -0.056009 
     34 C34        12.359161   -0.133733    7.544473 C.3       1 <1>        -0.056009 
     35 O35         4.981268  -10.236250    2.316901 O.3       1 <1>        -0.342438 
     36 C36         3.705198  -10.083402    2.961421 C.3       1 <1>         0.077290 
     37 C37         2.870943  -11.364187    2.718830 C.3       1 <1>         0.068050 
     38 O38         1.598670  -11.298172    3.389208 O.3       1 <1>        -0.392728 
     39 H1         15.525455   -7.926754    1.052956 H         1 <1>         0.061758 
     40 H2         14.582512   -5.861703    0.045193 H         1 <1>         0.061766 
     41 H3         12.170779   -5.358519    0.272740 H         1 <1>         0.062029 
     42 H4         11.614761   -9.027598    2.455862 H         1 <1>         0.062029 
     43 H5         14.036473   -9.507725    2.258888 H         1 <1>         0.061766 
     44 H6          9.654835   -7.807315    1.416494 H         1 <1>         0.031417 
     45 H7          9.903065   -6.211120    0.675622 H         1 <1>         0.031417 
     46 H8         10.639684   -5.327012    2.946932 H         1 <1>         0.029969 
     47 H9         10.229203   -6.882264    3.673247 H         1 <1>         0.029969 
     48 H10         8.321705   -8.049258    4.495748 H         1 <1>         0.062199 
     49 H11         6.831958   -9.979129    4.182543 H         1 <1>         0.064337 
     50 H12         5.018060   -8.067020    0.803776 H         1 <1>         0.064337 
     51 H13         6.485471   -6.118325    1.095681 H         1 <1>         0.062199 
     52 H14         8.488185   -5.759371    5.184329 H         1 <1>         0.036464 
     53 H15         7.144903   -4.805474    4.487701 H         1 <1>         0.036464 
     54 H16         9.183597   -3.899133    6.426841 H         1 <1>         0.216929 
     55 H17        12.290373   -3.439699    2.639404 H         1 <1>         0.063133 
     56 H18        13.982670   -4.532482    6.423816 H         1 <1>         0.062029 
     57 H19        12.838377   -2.675326    7.469433 H         1 <1>         0.062088 
     58 H20        13.388043   -6.064388    3.569965 H         1 <1>         0.027754 
     59 H21        14.909895   -5.544546    4.356223 H         1 <1>         0.027754 
     60 H22        14.447025   -4.850826    2.779131 H         1 <1>         0.027754 
     61 H23         9.416874   -0.542551    5.708534 H         1 <1>         0.023804 
     62 H24         9.806132    0.518511    7.069107 H         1 <1>         0.023804 
     63 H25         9.825690   -1.251907    7.287570 H         1 <1>         0.023804 
     64 H26        13.007839    0.594950    4.960850 H         1 <1>         0.023804 
     65 H27        11.751488    1.654031    5.655568 H         1 <1>         0.023804 
     66 H28        11.361659    0.617692    4.292893 H         1 <1>         0.023804 
     67 H29        12.043312   -0.765967    8.387712 H         1 <1>         0.023804 
     68 H30        12.176949    0.904967    7.860918 H         1 <1>         0.023804 
     69 H31        13.443553   -0.248790    7.391037 H         1 <1>         0.023804 
     70 H32         3.169894   -9.212270    2.549837 H         1 <1>         0.058777 
     71 H33         3.836815   -9.940931    4.046716 H         1 <1>         0.058777 
     72 H34         3.422939  -12.226758    3.124904 H         1 <1>         0.058006 
     73 H35         2.737225  -11.523727    1.635387 H         1 <1>         0.058006 
     74 H36         1.044758  -10.591322    3.072147 H         1 <1>         0.209494 
@<TRIPOS>BOND
     1    2    1 ar   
     2    2    3 ar   
     3    3    4 ar   
     4    4    5 ar   
     5    5    6 ar   
     6    1    6 ar   
     7    4    7 1    
     8    7    8 1    
     9    8    9 1    
    10    9   10 1    
    11   10   11 ar   
    12   11   12 ar   
    13   12   13 ar   
    14   13   14 ar   
    15   14   15 ar   
    16   10   15 ar   
    17    9   16 1    
    18   16   17 1    
    19   17   18 2    
    20   18   19 1    
    21   19   20 1    
    22    9   20 1    
    23   17   21 1    
    24   19   22 2    
    25   18   23 1    
    26   23   24 1    
    27   24   25 ar   
    28   25   26 ar   
    29   26   27 ar   
    30   27   28 ar   
    31   28   29 ar   
    32   24   29 ar   
    33   26   30 1    
    34   29   31 1    
    35   31   32 1    
    36   31   33 1    
    37   31   34 1    
    38   13   35 1    
    39   35   36 1    
    40   36   37 1    
    41   37   38 1    
    42    1   39 1    
    43    2   40 1    
    44    3   41 1    
    45    5   42 1    
    46    6   43 1    
    47    7   44 1    
    48    7   45 1    
    49    8   46 1    
    50    8   47 1    
    51   11   48 1    
    52   12   49 1    
    53   14   50 1    
    54   15   51 1    
    55   16   52 1    
    56   16   53 1    
    57   21   54 1    
    58   25   55 1    
    59   27   56 1    
    60   28   57 1    
    61   30   58 1    
    62   30   59 1    
    63   30   60 1    
    64   32   61 1    
    65   32   62 1    
    66   32   63 1    
    67   33   64 1    
    68   33   65 1    
    69   33   66 1    
    70   34   67 1    
    71   34   68 1    
    72   34   69 1    
    73   36   70 1    
    74   36   71 1    
    75   37   72 1    
    76   37   73 1    
    77   38   74 1    
@<TRIPOS>SUBSTRUCTURE
     1 ****        2 TEMP              0 ****  ****    0 ROOT 
@<TRIPOS>SET
ATOM$CYAN       STATIC     ATOMS    COLORGROUP SYSTEM 
74 1 2 3 4 5 6 7 8 9 10 11 12 13 14 15 16 17 18 19 \
 20 21 22 23 24 25 26 27 28 29 30 31 32 33 34 35 36 37 \
 38 39 40 41 42 43 44 45 46 47 48 49 50 51 52 53 54 55 \
 56 57 58 59 60 61 62 63 64 65 66 67 68 69 70 71 72 73 \
 74
@<TRIPOS>NORMAL
@<TRIPOS>FF_PBC
FORCE_FIELD_SETUP_FEATURE Force Field Setup information
v1.0  0 0.000000 0.000000 0.000000 0.000000 0.000000 0.000000 NONE 0 0 0 0 1 0 0 0 0 0 0 0 0
