#	Name:			Ha13
#	Creating user name:	ccollar
#	Creation time:		Fri Jul 29 17:25:04 2005

#	Modifying user name:	ccollar
#	Modification time:	Fri Jul 29 19:56:32 2005

@<TRIPOS>MOLECULE
Ha13
   71    74     1     1     1
SMALL
GASTEIGER


@<TRIPOS>ATOM
      1 C1         13.902327   -7.120953    0.504508 C.ar      1 <1>        -0.031922 
      2 C2         13.374087   -5.949207   -0.043692 C.ar      1 <1>        -0.059071 
      3 C3         11.994399   -5.728062   -0.018336 C.ar      1 <1>        -0.058415 
      4 C4         11.137301   -6.688058    0.531552 C.ar      1 <1>        -0.044826 
      5 C5         11.673871   -7.861222    1.074483 C.ar      1 <1>        -0.028758 
      6 C6         13.057533   -8.079287    1.069594 C.ar      1 <1>         0.072839 
      7 C7          9.618524   -6.462927    0.546001 C.3       1 <1>        -0.024648 
      8 C8          9.182549   -5.969742    1.950861 C.3       1 <1>        -0.014587 
      9 C9          7.666372   -5.602102    1.988909 C.3       1 <1>         0.110177 
     10 C10         6.827184   -6.821778    1.540513 C.ar      1 <1>        -0.014873 
     11 C11         6.908534   -8.039729    2.230278 C.ar      1 <1>        -0.055818 
     12 C12         6.167545   -9.151326    1.818610 C.ar      1 <1>        -0.061411 
     13 C13         5.324216   -9.059734    0.709456 C.ar      1 <1>        -0.061739 
     14 C14         5.225115   -7.849931    0.019194 C.ar      1 <1>        -0.061411 
     15 C15         5.968572   -6.741374    0.434873 C.ar      1 <1>        -0.055818 
     16 C16         7.214609   -5.175135    3.412135 C.3       1 <1>         0.028875 
     17 C17         7.915851   -3.890652    3.776876 C.2       1 <1>         0.072466 
     18 C18         8.259484   -3.021238    2.821780 C.2       1 <1>         0.109818 
     19 C19         7.909004   -3.319787    1.421328 C.2       1 <1>         0.303514 
     20 O20         7.453207   -4.525161    1.048750 O.3       1 <1>        -0.299209 
     21 O21         8.181173   -3.630212    5.063847 O.3       1 <1>        -0.362708 
     22 O22         8.012718   -2.449448    0.573407 O.2       1 <1>        -0.258537 
     23 S23         9.122491   -1.504272    3.209284 S.3       1 <1>        -0.081048 
     24 C24        10.465536   -2.268575    4.081607 C.ar      1 <1>         0.016918 
     25 C25        11.334137   -3.085590    3.354379 C.ar      1 <1>        -0.044452 
     26 C26        12.167767   -3.997242    4.005854 C.ar      1 <1>        -0.044034 
     27 C27        12.053596   -4.117529    5.395658 C.ar      1 <1>        -0.018935 
     28 C28        11.324549   -3.155784    6.105871 C.ar      1 <1>        -0.051401 
     29 C29        10.650308   -2.104764    5.464712 C.ar      1 <1>        -0.027908 
     30 C30        13.166449   -4.832307    3.193845 C.3       1 <1>        -0.039344 
     31 C31        10.168876   -0.849193    6.255890 C.3       1 <1>        -0.011614 
     32 C32         8.632757   -0.897409    6.500160 C.3       1 <1>        -0.056009 
     33 C33        10.564540    0.447721    5.482502 C.3       1 <1>        -0.056009 
     34 C34        10.854332   -0.734868    7.657657 C.3       1 <1>        -0.056009 
     35 O35        13.615591   -9.236891    1.620201 O.3       1 <1>        -0.359824 
     36 C36        12.711518   -5.281748    6.155180 C.3       1 <1>         0.069483 
     37 O37        11.967244   -5.654093    7.328525 O.3       1 <1>        -0.390408 
     38 H1         14.973352   -7.293397    0.495111 H         1 <1>         0.064320 
     39 H2         14.035433   -5.210554   -0.486476 H         1 <1>         0.061845 
     40 H3         11.594375   -4.805500   -0.427101 H         1 <1>         0.062031 
     41 H4         11.008038   -8.602641    1.502643 H         1 <1>         0.064593 
     42 H5          9.113823   -7.407893    0.289834 H         1 <1>         0.031418 
     43 H6          9.339781   -5.720475   -0.218449 H         1 <1>         0.031418 
     44 H7          9.794941   -5.092014    2.199420 H         1 <1>         0.029969 
     45 H8          9.421959   -6.744605    2.694238 H         1 <1>         0.029969 
     46 H9          7.548296   -8.146632    3.098290 H         1 <1>         0.062120 
     47 H10         6.246501  -10.088757    2.361188 H         1 <1>         0.061768 
     48 H11         4.749485   -9.922473    0.386338 H         1 <1>         0.061758 
     49 H12         4.568597   -7.771496   -0.842327 H         1 <1>         0.061768 
     50 H13         5.862321   -5.817147   -0.122608 H         1 <1>         0.062120 
     51 H14         7.455389   -5.972793    4.129952 H         1 <1>         0.036464 
     52 H15         6.128100   -4.999322    3.430005 H         1 <1>         0.036464 
     53 H16         7.887767   -4.280511    5.692080 H         1 <1>         0.216929 
     54 H17        11.344647   -3.014746    2.271589 H         1 <1>         0.063143 
     55 H18        11.297889   -3.253385    7.181463 H         1 <1>         0.062431 
     56 H19        12.723729   -5.816150    2.980745 H         1 <1>         0.027763 
     57 H20        14.106791   -4.965603    3.748872 H         1 <1>         0.027763 
     58 H21        13.408321   -4.336130    2.242574 H         1 <1>         0.027763 
     59 H22         8.056415   -0.865746    5.567645 H         1 <1>         0.023804 
     60 H23         8.314949   -0.040151    7.113247 H         1 <1>         0.023804 
     61 H24         8.368814   -1.821943    7.035571 H         1 <1>         0.023804 
     62 H25        11.648392    0.445715    5.289052 H         1 <1>         0.023804 
     63 H26        10.319877    1.348889    6.065347 H         1 <1>         0.023804 
     64 H27        10.048400    0.554461    4.522343 H         1 <1>         0.023804 
     65 H28        10.492169   -1.500455    8.359747 H         1 <1>         0.023804 
     66 H29        10.637921    0.235348    8.130891 H         1 <1>         0.023804 
     67 H30        11.947652   -0.822803    7.559862 H         1 <1>         0.023804 
     68 H31        12.981826   -9.863747    1.950027 H         1 <1>         0.217313 
     69 H32        13.714055   -4.957764    6.473446 H         1 <1>         0.060719 
     70 H33        12.818036   -6.172251    5.514490 H         1 <1>         0.060719 
     71 H34        11.083352   -5.943772    7.122889 H         1 <1>         0.209847 
@<TRIPOS>BOND
     1    2    1 ar   
     2    2    3 ar   
     3    3    4 ar   
     4    4    5 ar   
     5    5    6 ar   
     6    1    6 ar   
     7    4    7 1    
     8    7    8 1    
     9    8    9 1    
    10    9   10 1    
    11   10   11 ar   
    12   11   12 ar   
    13   12   13 ar   
    14   13   14 ar   
    15   14   15 ar   
    16   10   15 ar   
    17    9   16 1    
    18   16   17 1    
    19   17   18 2    
    20   18   19 1    
    21   19   20 1    
    22    9   20 1    
    23   17   21 1    
    24   19   22 2    
    25   18   23 1    
    26   23   24 1    
    27   24   25 ar   
    28   25   26 ar   
    29   26   27 ar   
    30   27   28 ar   
    31   28   29 ar   
    32   24   29 ar   
    33   26   30 1    
    34   29   31 1    
    35   31   32 1    
    36   31   33 1    
    37   31   34 1    
    38    6   35 1    
    39   27   36 1    
    40   36   37 1    
    41    1   38 1    
    42    2   39 1    
    43    3   40 1    
    44    5   41 1    
    45    7   42 1    
    46    7   43 1    
    47    8   44 1    
    48    8   45 1    
    49   11   46 1    
    50   12   47 1    
    51   13   48 1    
    52   14   49 1    
    53   15   50 1    
    54   16   51 1    
    55   16   52 1    
    56   21   53 1    
    57   25   54 1    
    58   28   55 1    
    59   30   56 1    
    60   30   57 1    
    61   30   58 1    
    62   32   59 1    
    63   32   60 1    
    64   32   61 1    
    65   33   62 1    
    66   33   63 1    
    67   33   64 1    
    68   34   65 1    
    69   34   66 1    
    70   34   67 1    
    71   35   68 1    
    72   36   69 1    
    73   36   70 1    
    74   37   71 1    
@<TRIPOS>SUBSTRUCTURE
     1 ****        2 TEMP              0 ****  ****    0 ROOT 
@<TRIPOS>SET
ATOM$CYAN       STATIC     ATOMS    COLORGROUP SYSTEM 
71 1 2 3 4 5 6 7 8 9 10 11 12 13 14 15 16 17 18 19 \
 20 21 22 23 24 25 26 27 28 29 30 31 32 33 34 35 36 37 \
 38 39 40 41 42 43 44 45 46 47 48 49 50 51 52 53 54 55 \
 56 57 58 59 60 61 62 63 64 65 66 67 68 69 70 71
@<TRIPOS>NORMAL
@<TRIPOS>FF_PBC
FORCE_FIELD_SETUP_FEATURE Force Field Setup information
v1.0  0 0.000000 0.000000 0.000000 0.000000 0.000000 0.000000 NONE 0 0 0 0 1 0 0 0 0 0 0 0 0
