#	Name:			Ha14
#	Creating user name:	ccollar
#	Creation time:		Fri Jul 29 17:25:04 2005

#	Modifying user name:	ccollar
#	Modification time:	Fri Jul 29 20:00:30 2005

@<TRIPOS>MOLECULE
Ha14
   72    75     1     1     1
SMALL
GASTEIGER


@<TRIPOS>ATOM
      1 C1         13.944763   -7.078236    0.569262 C.ar      1 <1>         0.012914 
      2 C2         13.767111   -5.820222   -0.010613 C.ar      1 <1>        -0.043860 
      3 C3         12.479529   -5.316324   -0.216144 C.ar      1 <1>        -0.057102 
      4 C4         11.359643   -6.079242    0.134474 C.ar      1 <1>        -0.047158 
      5 C5         11.540965   -7.345552    0.701797 C.ar      1 <1>        -0.057102 
      6 C6         12.828694   -7.843015    0.922146 C.ar      1 <1>        -0.043860 
      7 C7          9.941340   -5.538264   -0.094114 C.3       1 <1>        -0.024727 
      8 C8          9.387184   -4.970535    1.238997 C.3       1 <1>        -0.014588 
      9 C9          7.999185   -4.284890    1.042560 C.3       1 <1>         0.110177 
     10 C10         7.009812   -5.291343    0.409237 C.ar      1 <1>        -0.014873 
     11 C11         6.714330   -6.503860    1.048213 C.ar      1 <1>        -0.055818 
     12 C12         5.836537   -7.426484    0.471640 C.ar      1 <1>        -0.061411 
     13 C13         5.232201   -7.146421   -0.755632 C.ar      1 <1>        -0.061739 
     14 C14         5.508679   -5.937886   -1.398218 C.ar      1 <1>        -0.061411 
     15 C15         6.387360   -5.018724   -0.817286 C.ar      1 <1>        -0.055818 
     16 C16         7.412994   -3.780676    2.389440 C.3       1 <1>         0.028875 
     17 C17         8.298472   -2.681054    2.920201 C.2       1 <1>         0.072466 
     18 C18         8.975251   -1.899397    2.073304 C.2       1 <1>         0.109818 
     19 C19         8.811797   -2.104694    0.622648 C.2       1 <1>         0.303514 
     20 O20         8.181434   -3.180532    0.128012 O.3       1 <1>        -0.299209 
     21 O21         8.391076   -2.493812    4.243421 O.3       1 <1>        -0.362708 
     22 O22         9.238884   -1.270631   -0.157842 O.2       1 <1>        -0.258537 
     23 S23        10.061635   -0.607504    2.662393 S.3       1 <1>        -0.081048 
     24 C24        11.044704   -1.647281    3.711898 C.ar      1 <1>         0.016918 
     25 C25        11.834135   -2.626674    3.104814 C.ar      1 <1>        -0.044452 
     26 C26        12.337285   -3.697420    3.846999 C.ar      1 <1>        -0.044034 
     27 C27        11.963461   -3.799870    5.191906 C.ar      1 <1>        -0.018935 
     28 C28        11.339033   -2.710134    5.811097 C.ar      1 <1>        -0.051401 
     29 C29        11.020298   -1.535308    5.112190 C.ar      1 <1>        -0.027908 
     30 C30        13.266945   -4.718456    3.178099 C.3       1 <1>        -0.039344 
     31 C31        10.685508   -0.210519    5.865181 C.3       1 <1>        -0.011614 
     32 C32         9.155255    0.071933    5.848088 C.3       1 <1>        -0.056009 
     33 C33        11.473045    0.975243    5.224573 C.3       1 <1>        -0.056009 
     34 C34        11.128285   -0.255034    7.365124 C.3       1 <1>        -0.056009 
     35 N35        15.251200   -7.566499    0.796187 N.3       1 <1>        -0.302255 
     36 C36        12.224916   -5.082232    5.999477 C.3       1 <1>         0.069483 
     37 O37        11.231556   -5.295566    7.017797 O.3       1 <1>        -0.390408 
     38 H1         14.635236   -5.235941   -0.297112 H         1 <1>         0.063317 
     39 H2         12.356382   -4.328099   -0.647709 H         1 <1>         0.062077 
     40 H3         10.680104   -7.947396    0.975395 H         1 <1>         0.062077 
     41 H4         12.963916   -8.823029    1.367758 H         1 <1>         0.063317 
     42 H5          9.301888   -6.353773   -0.467383 H         1 <1>         0.031417 
     43 H6          9.957784   -4.750200   -0.863510 H         1 <1>         0.031417 
     44 H7         10.120009   -4.246816    1.621830 H         1 <1>         0.029969 
     45 H8          9.328109   -5.783407    1.978036 H         1 <1>         0.029969 
     46 H9          7.160519   -6.752983    2.003736 H         1 <1>         0.062120 
     47 H10         5.622924   -8.363364    0.977644 H         1 <1>         0.061768 
     48 H11         4.552111   -7.862663   -1.206738 H         1 <1>         0.061758 
     49 H12         5.039335   -5.712866   -2.351360 H         1 <1>         0.061768 
     50 H13         6.574021   -4.088511   -1.342761 H         1 <1>         0.062120 
     51 H14         7.353431   -4.616864    3.101333 H         1 <1>         0.036464 
     52 H15         6.401618   -3.374057    2.236055 H         1 <1>         0.036464 
     53 H16         7.864590   -3.070180    4.785874 H         1 <1>         0.216929 
     54 H17        12.042350   -2.554739    2.042258 H         1 <1>         0.063143 
     55 H18        11.106653   -2.807172    6.861684 H         1 <1>         0.062431 
     56 H19        12.672920   -5.582308    2.846114 H         1 <1>         0.027763 
     57 H20        14.046371   -5.056073    3.877043 H         1 <1>         0.027763 
     58 H21        13.770644   -4.275106    2.306721 H         1 <1>         0.027763 
     59 H22         8.767330    0.232738    4.834986 H         1 <1>         0.023804 
     60 H23         8.925365    0.973865    6.435840 H         1 <1>         0.023804 
     61 H24         8.613963   -0.777139    6.292113 H         1 <1>         0.023804 
     62 H25        12.548780    0.741012    5.214338 H         1 <1>         0.023804 
     63 H26        11.327836    1.904491    5.796473 H         1 <1>         0.023804 
     64 H27        11.163849    1.196103    4.197265 H         1 <1>         0.023804 
     65 H28        10.497593   -0.929167    7.963467 H         1 <1>         0.023804 
     66 H29        11.043311    0.736071    7.836920 H         1 <1>         0.023804 
     67 H30        12.178616   -0.575532    7.447178 H         1 <1>         0.023804 
     68 H31        15.405679   -8.486450    0.250477 H         1 <1>         0.123921 
     69 H32        15.407792   -7.734330    1.852225 H         1 <1>         0.123921 
     70 H33        13.204232   -4.981412    6.491528 H         1 <1>         0.060719 
     71 H34        12.249984   -5.970514    5.347438 H         1 <1>         0.060719 
     72 H35        10.354554   -5.388761    6.657699 H         1 <1>         0.209847 
@<TRIPOS>BOND
     1    2    1 ar   
     2    2    3 ar   
     3    3    4 ar   
     4    4    5 ar   
     5    5    6 ar   
     6    1    6 ar   
     7    4    7 1    
     8    7    8 1    
     9    8    9 1    
    10    9   10 1    
    11   10   11 ar   
    12   11   12 ar   
    13   12   13 ar   
    14   13   14 ar   
    15   14   15 ar   
    16   10   15 ar   
    17    9   16 1    
    18   16   17 1    
    19   17   18 2    
    20   18   19 1    
    21   19   20 1    
    22    9   20 1    
    23   17   21 1    
    24   19   22 2    
    25   18   23 1    
    26   23   24 1    
    27   24   25 ar   
    28   25   26 ar   
    29   26   27 ar   
    30   27   28 ar   
    31   28   29 ar   
    32   24   29 ar   
    33   26   30 1    
    34   29   31 1    
    35   31   32 1    
    36   31   33 1    
    37   31   34 1    
    38    1   35 1    
    39   27   36 1    
    40   36   37 1    
    41    2   38 1    
    42    3   39 1    
    43    5   40 1    
    44    6   41 1    
    45    7   42 1    
    46    7   43 1    
    47    8   44 1    
    48    8   45 1    
    49   11   46 1    
    50   12   47 1    
    51   13   48 1    
    52   14   49 1    
    53   15   50 1    
    54   16   51 1    
    55   16   52 1    
    56   21   53 1    
    57   25   54 1    
    58   28   55 1    
    59   30   56 1    
    60   30   57 1    
    61   30   58 1    
    62   32   59 1    
    63   32   60 1    
    64   32   61 1    
    65   33   62 1    
    66   33   63 1    
    67   33   64 1    
    68   34   65 1    
    69   34   66 1    
    70   34   67 1    
    71   35   68 1    
    72   35   69 1    
    73   36   70 1    
    74   36   71 1    
    75   37   72 1    
@<TRIPOS>SUBSTRUCTURE
     1 ****        2 TEMP              0 ****  ****    0 ROOT 
@<TRIPOS>SET
ATOM$CYAN       STATIC     ATOMS    COLORGROUP SYSTEM 
72 1 2 3 4 5 6 7 8 9 10 11 12 13 14 15 16 17 18 19 \
 20 21 22 23 24 25 26 27 28 29 30 31 32 33 34 35 36 37 \
 38 39 40 41 42 43 44 45 46 47 48 49 50 51 52 53 54 55 \
 56 57 58 59 60 61 62 63 64 65 66 67 68 69 70 71 72
@<TRIPOS>NORMAL
@<TRIPOS>FF_PBC
FORCE_FIELD_SETUP_FEATURE Force Field Setup information
v1.0  0 0.000000 0.000000 0.000000 0.000000 0.000000 0.000000 NONE 0 0 0 0 1 0 0 0 0 0 0 0 0
