#	Name:			Ha15
#	Creating user name:	ccollar
#	Creation time:		Fri Jul 29 17:25:04 2005

#	Modifying user name:	ccollar
#	Modification time:	Fri Jul 29 20:03:45 2005

@<TRIPOS>MOLECULE
Ha15
   72    75     1     1     1
SMALL
GASTEIGER


@<TRIPOS>ATOM
      1 C1         14.115336   -7.230175    0.363802 C.ar      1 <1>        -0.044100 
      2 C2         14.181295   -5.923548   -0.127388 C.ar      1 <1>        -0.060032 
      3 C3         13.020401   -5.149204   -0.211045 C.ar      1 <1>        -0.058476 
      4 C4         11.785067   -5.684903    0.171398 C.ar      1 <1>        -0.045786 
      5 C5         11.725596   -6.995891    0.657087 C.ar      1 <1>        -0.040933 
      6 C6         12.888412   -7.765915    0.761685 C.ar      1 <1>         0.013156 
      7 C7         10.501741   -4.849058    0.066006 C.3       1 <1>        -0.024679 
      8 C8         10.140485   -4.280418    1.463453 C.3       1 <1>        -0.014587 
      9 C9          8.920745   -3.309448    1.394138 C.3       1 <1>         0.110177 
     10 C10         7.713803   -4.039840    0.759652 C.ar      1 <1>        -0.014873 
     11 C11         7.198712   -5.208359    1.338483 C.ar      1 <1>        -0.055818 
     12 C12         6.120727   -5.884087    0.759261 C.ar      1 <1>        -0.061411 
     13 C13         5.533713   -5.395401   -0.409686 C.ar      1 <1>        -0.061739 
     14 C14         6.029232   -4.226533   -0.991161 C.ar      1 <1>        -0.061411 
     15 C15         7.107788   -3.554848   -0.408068 C.ar      1 <1>        -0.055818 
     16 C16         8.515276   -2.795013    2.802300 C.3       1 <1>         0.028875 
     17 C17         9.635817   -1.945231    3.347286 C.2       1 <1>         0.072466 
     18 C18        10.424743   -1.262022    2.512347 C.2       1 <1>         0.109818 
     19 C19        10.156374   -1.321152    1.063968 C.2       1 <1>         0.303514 
     20 O20         9.290382   -2.202402    0.541467 O.3       1 <1>        -0.299209 
     21 O21         9.824130   -1.878370    4.671912 O.3       1 <1>        -0.362708 
     22 O22        10.715234   -0.539366    0.313170 O.2       1 <1>        -0.258537 
     23 S23        11.786703   -0.273578    3.116037 S.3       1 <1>        -0.081048 
     24 C24        12.566020   -1.573274    4.039357 C.ar      1 <1>         0.016918 
     25 C25        13.098160   -2.650601    3.327332 C.ar      1 <1>        -0.044452 
     26 C26        13.379910   -3.858604    3.969103 C.ar      1 <1>        -0.044034 
     27 C27        13.048120   -3.977951    5.323630 C.ar      1 <1>        -0.018935 
     28 C28        12.707507   -2.827902    6.046294 C.ar      1 <1>        -0.051401 
     29 C29        12.625644   -1.563164    5.442964 C.ar      1 <1>        -0.027908 
     30 C30        14.029972   -5.005564    3.184291 C.3       1 <1>        -0.039344 
     31 C31        12.621505   -0.257046    6.296060 C.3       1 <1>        -0.011614 
     32 C32        11.190358    0.347370    6.386587 C.3       1 <1>        -0.056009 
     33 C33        13.619615    0.776390    5.685883 C.3       1 <1>        -0.056009 
     34 C34        13.109604   -0.506970    7.761320 C.3       1 <1>        -0.056009 
     35 N35        12.832592   -9.083837    1.268631 N.3       1 <1>        -0.302248 
     36 C36        13.050591   -5.343506    6.030949 C.3       1 <1>         0.069483 
     37 O37        12.074634   -5.410326    7.085612 O.3       1 <1>        -0.390408 
     38 H1         15.014004   -7.833228    0.439184 H         1 <1>         0.063309 
     39 H2         15.134674   -5.509581   -0.441376 H         1 <1>         0.061815 
     40 H3         13.085828   -4.128283   -0.573784 H         1 <1>         0.062030 
     41 H4         10.774521   -7.422084    0.957562 H         1 <1>         0.063580 
     42 H5          9.689576   -5.486456   -0.317941 H         1 <1>         0.031418 
     43 H6         10.645814   -4.026193   -0.651910 H         1 <1>         0.031418 
     44 H7         11.025840   -3.754605    1.846475 H         1 <1>         0.029969 
     45 H8          9.945116   -5.115959    2.151988 H         1 <1>         0.029969 
     46 H9          7.625344   -5.614058    2.248188 H         1 <1>         0.062120 
     47 H10         5.737627   -6.790916    1.217839 H         1 <1>         0.061768 
     48 H11         4.697972   -5.919970   -0.862882 H         1 <1>         0.061758 
     49 H12         5.574711   -3.839545   -1.898371 H         1 <1>         0.061768 
     50 H13         7.462635   -2.647703   -0.884969 H         1 <1>         0.062120 
     51 H14         8.312935   -3.650771    3.462815 H         1 <1>         0.036464 
     52 H15         7.606550   -2.177422    2.735042 H         1 <1>         0.036464 
     53 H16         9.212015   -2.370395    5.207510 H         1 <1>         0.216929 
     54 H17        13.277730   -2.544057    2.262458 H         1 <1>         0.063143 
     55 H18        12.505595   -2.950311    7.100543 H         1 <1>         0.062431 
     56 H19        13.245774   -5.694069    2.837528 H         1 <1>         0.027763 
     57 H20        14.746815   -5.553231    3.813765 H         1 <1>         0.027763 
     58 H21        14.578248   -4.620849    2.311975 H         1 <1>         0.027763 
     59 H22        10.803333    0.662518    5.410032 H         1 <1>         0.023804 
     60 H23        11.188395    1.231294    7.042678 H         1 <1>         0.023804 
     61 H24        10.496712   -0.396530    6.806784 H         1 <1>         0.023804 
     62 H25        14.617104    0.318644    5.598372 H         1 <1>         0.023804 
     63 H26        13.704975    1.670529    6.322192 H         1 <1>         0.023804 
     64 H27        13.321539    1.133225    4.694132 H         1 <1>         0.023804 
     65 H28        14.066759   -1.051500    7.760481 H         1 <1>         0.023804 
     66 H29        12.373658   -1.071873    8.352496 H         1 <1>         0.023804 
     67 H30        13.264836    0.441373    8.298572 H         1 <1>         0.023804 
     68 H31        12.199404   -9.697322    0.643563 H         1 <1>         0.123921 
     69 H32        12.455547   -9.078230    2.281400 H         1 <1>         0.123921 
     70 H33        14.046194   -5.495960    6.474634 H         1 <1>         0.060719 
     71 H34        12.853084   -6.164664    5.322783 H         1 <1>         0.060719 
     72 H35        11.185596   -5.282356    6.768255 H         1 <1>         0.209847 
@<TRIPOS>BOND
     1    2    1 ar   
     2    2    3 ar   
     3    3    4 ar   
     4    4    5 ar   
     5    5    6 ar   
     6    1    6 ar   
     7    4    7 1    
     8    7    8 1    
     9    8    9 1    
    10    9   10 1    
    11   10   11 ar   
    12   11   12 ar   
    13   12   13 ar   
    14   13   14 ar   
    15   14   15 ar   
    16   10   15 ar   
    17    9   16 1    
    18   16   17 1    
    19   17   18 2    
    20   18   19 1    
    21   19   20 1    
    22    9   20 1    
    23   17   21 1    
    24   19   22 2    
    25   18   23 1    
    26   23   24 1    
    27   24   25 ar   
    28   25   26 ar   
    29   26   27 ar   
    30   27   28 ar   
    31   28   29 ar   
    32   24   29 ar   
    33   26   30 1    
    34   29   31 1    
    35   31   32 1    
    36   31   33 1    
    37   31   34 1    
    38    6   35 1    
    39   27   36 1    
    40   36   37 1    
    41    1   38 1    
    42    2   39 1    
    43    3   40 1    
    44    5   41 1    
    45    7   42 1    
    46    7   43 1    
    47    8   44 1    
    48    8   45 1    
    49   11   46 1    
    50   12   47 1    
    51   13   48 1    
    52   14   49 1    
    53   15   50 1    
    54   16   51 1    
    55   16   52 1    
    56   21   53 1    
    57   25   54 1    
    58   28   55 1    
    59   30   56 1    
    60   30   57 1    
    61   30   58 1    
    62   32   59 1    
    63   32   60 1    
    64   32   61 1    
    65   33   62 1    
    66   33   63 1    
    67   33   64 1    
    68   34   65 1    
    69   34   66 1    
    70   34   67 1    
    71   35   68 1    
    72   35   69 1    
    73   36   70 1    
    74   36   71 1    
    75   37   72 1    
@<TRIPOS>SUBSTRUCTURE
     1 ****        2 TEMP              0 ****  ****    0 ROOT 
@<TRIPOS>SET
ATOM$CYAN       STATIC     ATOMS    COLORGROUP SYSTEM 
72 1 2 3 4 5 6 7 8 9 10 11 12 13 14 15 16 17 18 19 \
 20 21 22 23 24 25 26 27 28 29 30 31 32 33 34 35 36 37 \
 38 39 40 41 42 43 44 45 46 47 48 49 50 51 52 53 54 55 \
 56 57 58 59 60 61 62 63 64 65 66 67 68 69 70 71 72
@<TRIPOS>NORMAL
@<TRIPOS>FF_PBC
FORCE_FIELD_SETUP_FEATURE Force Field Setup information
v1.0  0 0.000000 0.000000 0.000000 0.000000 0.000000 0.000000 NONE 0 0 0 0 1 0 0 0 0 0 0 0 0
