#	Name:			Ha16
#	Creating user name:	ccollar
#	Creation time:		Fri Jul 29 17:25:04 2005

#	Modifying user name:	ccollar
#	Modification time:	Fri Jul 29 20:06:48 2005

@<TRIPOS>MOLECULE
Ha16
   78    81     1     1     1
SMALL
GASTEIGER


@<TRIPOS>ATOM
      1 C1         14.072956   -9.442550    1.398841 C.ar      1 <1>        -0.061742 
      2 C2         14.327317   -8.068658    1.371412 C.ar      1 <1>        -0.061501 
      3 C3         13.265482   -7.159527    1.391145 C.ar      1 <1>        -0.058571 
      4 C4         11.943240   -7.618076    1.414347 C.ar      1 <1>        -0.047254 
      5 C5         11.693962   -8.994820    1.440225 C.ar      1 <1>        -0.058571 
      6 C6         12.754746   -9.905266    1.435710 C.ar      1 <1>        -0.061501 
      7 C7         10.770550   -6.627425    1.413504 C.3       1 <1>        -0.024728 
      8 C8         10.240127   -6.452057    2.860802 C.3       1 <1>        -0.014588 
      9 C9          9.120152   -5.367892    2.937495 C.3       1 <1>         0.110179 
     10 C10         7.975912   -5.738194    1.964700 C.ar      1 <1>        -0.014716 
     11 C11         7.297234   -6.958911    2.089946 C.ar      1 <1>        -0.053380 
     12 C12         6.285471   -7.313839    1.193064 C.ar      1 <1>        -0.031330 
     13 C13         5.933463   -6.447363    0.157651 C.ar      1 <1>         0.076292 
     14 C14         6.581726   -5.217817    0.035798 C.ar      1 <1>        -0.031330 
     15 C15         7.592964   -4.866595    0.934869 C.ar      1 <1>        -0.053380 
     16 C16         8.541508   -5.239787    4.372996 C.3       1 <1>         0.028875 
     17 C17         9.623217   -4.717422    5.285046 C.2       1 <1>         0.072466 
     18 C18        10.577701   -3.916642    4.801337 C.2       1 <1>         0.109818 
     19 C19        10.532095   -3.524413    3.381029 C.2       1 <1>         0.303514 
     20 O20         9.696004   -4.112398    2.512260 O.3       1 <1>        -0.299209 
     21 O21         9.610460   -5.058015    6.580572 O.3       1 <1>        -0.362708 
     22 O22        11.254388   -2.628384    2.977759 O.2       1 <1>        -0.258537 
     23 S23        11.897015   -3.305490    5.841608 S.3       1 <1>        -0.081048 
     24 C24        12.435086   -4.896318    6.414527 C.ar      1 <1>         0.016918 
     25 C25        12.992011   -5.772007    5.479785 C.ar      1 <1>        -0.044452 
     26 C26        13.089990   -7.137899    5.754000 C.ar      1 <1>        -0.044034 
     27 C27        12.549327   -7.608743    6.956109 C.ar      1 <1>        -0.018935 
     28 C28        12.183865   -6.688528    7.946314 C.ar      1 <1>        -0.051401 
     29 C29        12.282822   -5.302080    7.750902 C.ar      1 <1>        -0.027908 
     30 C30        13.771798   -8.070913    4.744714 C.3       1 <1>        -0.039344 
     31 C31        12.241802   -4.309152    8.953467 C.3       1 <1>        -0.011614 
     32 C32        10.859483   -3.600566    9.046976 C.3       1 <1>        -0.056009 
     33 C33        13.390737   -3.261778    8.813771 C.3       1 <1>        -0.056009 
     34 C34        12.484327   -5.028085   10.321681 C.3       1 <1>        -0.056009 
     35 O35         4.939457   -6.807979   -0.749880 O.3       1 <1>        -0.342438 
     36 C36        12.349752   -9.112383    7.209298 C.3       1 <1>         0.069483 
     37 O37        11.223036   -9.374035    8.064483 O.3       1 <1>        -0.390408 
     38 C38         5.437785   -7.530319   -1.889176 C.3       1 <1>         0.077290 
     39 C39         4.252637   -7.873472   -2.819556 C.3       1 <1>         0.068050 
     40 O40         4.749703   -8.599251   -3.959555 O.3       1 <1>        -0.392728 
     41 H1         14.897622  -10.148722    1.391824 H         1 <1>         0.061758 
     42 H2         15.350647   -7.707301    1.337098 H         1 <1>         0.061766 
     43 H3         13.475394   -6.094646    1.389889 H         1 <1>         0.062029 
     44 H4         10.672964   -9.362321    1.464945 H         1 <1>         0.062029 
     45 H5         12.554841  -10.972185    1.460423 H         1 <1>         0.061766 
     46 H6          9.979298   -7.012235    0.750919 H         1 <1>         0.031417 
     47 H7         11.098045   -5.656153    1.010163 H         1 <1>         0.031417 
     48 H8         11.091663   -6.168123    3.494381 H         1 <1>         0.029969 
     49 H9          9.879136   -7.423207    3.230803 H         1 <1>         0.029969 
     50 H10         7.542032   -7.654534    2.883939 H         1 <1>         0.062199 
     51 H11         5.768224   -8.262234    1.294555 H         1 <1>         0.064337 
     52 H12         6.294665   -4.539518   -0.760912 H         1 <1>         0.064337 
     53 H13         8.072499   -3.901521    0.812484 H         1 <1>         0.062199 
     54 H14         8.179177   -6.220926    4.713046 H         1 <1>         0.036464 
     55 H15         7.700739   -4.529325    4.382785 H         1 <1>         0.036464 
     56 H16         8.889919   -5.610792    6.861460 H         1 <1>         0.216929 
     57 H17        13.336218   -5.380972    4.527857 H         1 <1>         0.063143 
     58 H18        11.816292   -7.089203    8.879890 H         1 <1>         0.062431 
     59 H19        13.004999   -8.534222    4.106800 H         1 <1>         0.027763 
     60 H20        14.342615   -8.856414    5.261606 H         1 <1>         0.027763 
     61 H21        14.474303   -7.511789    4.109519 H         1 <1>         0.027763 
     62 H22        10.647559   -2.972981    8.172916 H         1 <1>         0.023804 
     63 H23        10.820536   -2.951984    9.935577 H         1 <1>         0.023804 
     64 H24        10.059845   -4.351849    9.132059 H         1 <1>         0.023804 
     65 H25        14.355292   -3.783204    8.714145 H         1 <1>         0.023804 
     66 H26        13.442077   -2.607266    9.697307 H         1 <1>         0.023804 
     67 H27        13.271326   -2.600435    7.948817 H         1 <1>         0.023804 
     68 H28        13.390022   -5.652575   10.273077 H         1 <1>         0.023804 
     69 H29        11.629761   -5.654398   10.617772 H         1 <1>         0.023804 
     70 H30        12.622795   -4.300971   11.136690 H         1 <1>         0.023804 
     71 H31        13.253704   -9.497568    7.705129 H         1 <1>         0.060719 
     72 H32        12.205219   -9.663992    6.266079 H         1 <1>         0.060719 
     73 H33        10.403381   -9.061030    7.693434 H         1 <1>         0.209847 
     74 H34         5.927518   -8.465511   -1.571441 H         1 <1>         0.058777 
     75 H35         6.167062   -6.919369   -2.446252 H         1 <1>         0.058777 
     76 H36         3.764579   -6.935328   -3.134557 H         1 <1>         0.058006 
     77 H37         3.522942   -8.480275   -2.256660 H         1 <1>         0.058006 
     78 H38         4.063180   -8.841014   -4.574512 H         1 <1>         0.209494 
@<TRIPOS>BOND
     1    2    1 ar   
     2    2    3 ar   
     3    3    4 ar   
     4    4    5 ar   
     5    5    6 ar   
     6    1    6 ar   
     7    4    7 1    
     8    7    8 1    
     9    8    9 1    
    10    9   10 1    
    11   10   11 ar   
    12   11   12 ar   
    13   12   13 ar   
    14   13   14 ar   
    15   14   15 ar   
    16   10   15 ar   
    17    9   16 1    
    18   16   17 1    
    19   17   18 2    
    20   18   19 1    
    21   19   20 1    
    22    9   20 1    
    23   17   21 1    
    24   19   22 2    
    25   18   23 1    
    26   23   24 1    
    27   24   25 ar   
    28   25   26 ar   
    29   26   27 ar   
    30   27   28 ar   
    31   28   29 ar   
    32   24   29 ar   
    33   26   30 1    
    34   29   31 1    
    35   31   32 1    
    36   31   33 1    
    37   31   34 1    
    38   13   35 1    
    39   27   36 1    
    40   36   37 1    
    41   35   38 1    
    42   38   39 1    
    43   39   40 1    
    44    1   41 1    
    45    2   42 1    
    46    3   43 1    
    47    5   44 1    
    48    6   45 1    
    49    7   46 1    
    50    7   47 1    
    51    8   48 1    
    52    8   49 1    
    53   11   50 1    
    54   12   51 1    
    55   14   52 1    
    56   15   53 1    
    57   16   54 1    
    58   16   55 1    
    59   21   56 1    
    60   25   57 1    
    61   28   58 1    
    62   30   59 1    
    63   30   60 1    
    64   30   61 1    
    65   32   62 1    
    66   32   63 1    
    67   32   64 1    
    68   33   65 1    
    69   33   66 1    
    70   33   67 1    
    71   34   68 1    
    72   34   69 1    
    73   34   70 1    
    74   36   71 1    
    75   36   72 1    
    76   37   73 1    
    77   38   74 1    
    78   38   75 1    
    79   39   76 1    
    80   39   77 1    
    81   40   78 1    
@<TRIPOS>SUBSTRUCTURE
     1 ****        2 TEMP              0 ****  ****    0 ROOT 
@<TRIPOS>SET
ATOM$CYAN       STATIC     ATOMS    COLORGROUP SYSTEM 
78 1 2 3 4 5 6 7 8 9 10 11 12 13 14 15 16 17 18 19 \
 20 21 22 23 24 25 26 27 28 29 30 31 32 33 34 35 36 37 \
 38 39 40 41 42 43 44 45 46 47 48 49 50 51 52 53 54 55 \
 56 57 58 59 60 61 62 63 64 65 66 67 68 69 70 71 72 73 \
 74 75 76 77 78
@<TRIPOS>NORMAL
@<TRIPOS>FF_PBC
FORCE_FIELD_SETUP_FEATURE Force Field Setup information
v1.0  0 0.000000 0.000000 0.000000 0.000000 0.000000 0.000000 NONE 0 0 0 0 1 0 0 0 0 0 0 0 0
