#	Name:			Ha17
#	Creating user name:	ccollar
#	Creation time:		Fri Jul 29 17:25:04 2005

#	Modifying user name:	ccollar
#	Modification time:	Fri Jul 29 20:10:26 2005

@<TRIPOS>MOLECULE
Ha17
   82    85     1     1     1
SMALL
GASTEIGER


@<TRIPOS>ATOM
      1 C1         13.983079   -9.816570    1.210754 C.ar      1 <1>        -0.061742 
      2 C2         14.136469   -8.428441    1.159523 C.ar      1 <1>        -0.061501 
      3 C3         13.010515   -7.601658    1.107245 C.ar      1 <1>        -0.058571 
      4 C4         11.726012   -8.157457    1.088786 C.ar      1 <1>        -0.047254 
      5 C5         11.577808   -9.548124    1.134785 C.ar      1 <1>        -0.058571 
      6 C6         12.702415  -10.376039    1.198812 C.ar      1 <1>        -0.061501 
      7 C7         10.487702   -7.252548    1.026027 C.3       1 <1>        -0.024728 
      8 C8          9.960939   -7.016907    2.465686 C.3       1 <1>        -0.014588 
      9 C9          8.800160   -5.974912    2.496441 C.3       1 <1>         0.110179 
     10 C10         7.653335   -6.456689    1.577056 C.ar      1 <1>        -0.014716 
     11 C11         7.020598   -7.686818    1.807013 C.ar      1 <1>        -0.053380 
     12 C12         6.003305   -8.140639    0.962509 C.ar      1 <1>        -0.031330 
     13 C13         5.600029   -7.365819   -0.125453 C.ar      1 <1>         0.076292 
     14 C14         6.204512   -6.129147   -0.354140 C.ar      1 <1>        -0.031330 
     15 C15         7.221938   -5.679204    0.492460 C.ar      1 <1>        -0.053380 
     16 C16         8.252017   -5.771790    3.935443 C.3       1 <1>         0.028875 
     17 C17         9.337533   -5.153686    4.781763 C.2       1 <1>         0.072466 
     18 C18        10.249785   -4.353698    4.220795 C.2       1 <1>         0.109818 
     19 C19        10.150018   -4.055374    2.780499 C.2       1 <1>         0.303514 
     20 O20         9.314007   -4.728460    1.975923 O.3       1 <1>        -0.299209 
     21 O21         9.371113   -5.410120    6.096265 O.3       1 <1>        -0.362708 
     22 O22        10.825743   -3.161111    2.299965 O.2       1 <1>        -0.258537 
     23 S23        11.577576   -3.630943    5.176556 S.3       1 <1>        -0.081046 
     24 C24        12.152354   -5.141221    5.911248 C.ar      1 <1>         0.017058 
     25 C25        12.694763   -6.108570    5.060245 C.ar      1 <1>        -0.042338 
     26 C26        12.854626   -7.428221    5.486289 C.ar      1 <1>        -0.019414 
     27 C27        12.475305   -7.748334    6.791409 C.ar      1 <1>         0.079507 
     28 C28        12.036526   -6.745270    7.659679 C.ar      1 <1>        -0.026679 
     29 C29        12.041508   -5.390733    7.291062 C.ar      1 <1>        -0.025802 
     30 C30        13.420340   -8.483673    4.529164 C.3       1 <1>        -0.037232 
     31 C31        11.947770   -4.267516    8.370489 C.3       1 <1>        -0.011543 
     32 C32        10.535690   -3.612726    8.379791 C.3       1 <1>        -0.056008 
     33 C33        13.054382   -3.196047    8.117427 C.3       1 <1>        -0.056008 
     34 C34        12.207499   -4.812289    9.814244 C.3       1 <1>        -0.056008 
     35 O35         4.598318   -7.825100   -0.978451 O.3       1 <1>        -0.342438 
     36 O36        12.532610   -9.071053    7.230711 O.3       1 <1>        -0.342167 
     37 C37        13.644443   -9.354092    8.099004 C.3       1 <1>         0.077302 
     38 C38         5.096473   -8.563142   -2.107271 C.3       1 <1>         0.077290 
     39 C39         3.896184   -9.011159   -2.975458 C.3       1 <1>         0.068050 
     40 O40         4.332358   -9.712289   -4.154690 O.3       1 <1>        -0.392728 
     41 C41        13.613568  -10.854420    8.467067 C.3       1 <1>         0.068051 
     42 O42        14.727565  -11.145940    9.331561 O.3       1 <1>        -0.392728 
     43 H1         14.857034  -10.458891    1.259880 H         1 <1>         0.061758 
     44 H2         15.130711   -7.992100    1.162493 H         1 <1>         0.061766 
     45 H3         13.140473   -6.524313    1.083652 H         1 <1>         0.062029 
     46 H4         10.586769   -9.990549    1.123507 H         1 <1>         0.062029 
     47 H5         12.581260  -11.454254    1.239348 H         1 <1>         0.061766 
     48 H6          9.715208   -7.728136    0.401186 H         1 <1>         0.031417 
     49 H7         10.752400   -6.293122    0.554130 H         1 <1>         0.031417 
     50 H8         10.804670   -6.662786    3.072973 H         1 <1>         0.029969 
     51 H9          9.645251   -7.980370    2.893158 H         1 <1>         0.029969 
     52 H10         7.306066   -8.313471    2.643739 H         1 <1>         0.062199 
     53 H11         5.521355   -9.095368    1.145547 H         1 <1>         0.064337 
     54 H12         5.878640   -5.522065   -1.192321 H         1 <1>         0.064337 
     55 H13         7.667673   -4.712276    0.285852 H         1 <1>         0.062199 
     56 H14         7.934922   -6.740385    4.348564 H         1 <1>         0.036464 
     57 H15         7.386036   -5.092421    3.921054 H         1 <1>         0.036464 
     58 H16         8.680492   -5.970953    6.431460 H         1 <1>         0.216929 
     59 H17        12.981776   -5.830678    4.051314 H         1 <1>         0.063213 
     60 H18        11.688641   -7.068585    8.629869 H         1 <1>         0.064660 
     61 H19        13.774363   -9.377153    5.063476 H         1 <1>         0.027833 
     62 H20        14.264958   -8.062430    3.964355 H         1 <1>         0.027833 
     63 H21        12.627439   -8.782254    3.828355 H         1 <1>         0.027833 
     64 H22        10.302199   -3.094562    7.442130 H         1 <1>         0.023804 
     65 H23        10.461952   -2.871948    9.190725 H         1 <1>         0.023804 
     66 H24         9.768089   -4.383713    8.545539 H         1 <1>         0.023804 
     67 H25        14.040118   -3.685210    8.082238 H         1 <1>         0.023804 
     68 H26        13.071140   -2.444093    8.921152 H         1 <1>         0.023804 
     69 H27        12.917352   -2.641969    7.182730 H         1 <1>         0.023804 
     70 H28        13.143159   -5.392237    9.845957 H         1 <1>         0.023804 
     71 H29        11.379904   -5.441869   10.173504 H         1 <1>         0.023804 
     72 H30        12.299877   -3.990699   10.541332 H         1 <1>         0.023804 
     73 H31        13.587786   -8.757534    9.023817 H         1 <1>         0.058777 
     74 H32        14.597283   -9.128944    7.592359 H         1 <1>         0.058777 
     75 H33         5.654971   -9.449751   -1.765199 H         1 <1>         0.058777 
     76 H34         5.765349   -7.933851   -2.717230 H         1 <1>         0.058777 
     77 H35         3.341886   -8.115986   -3.299559 H         1 <1>         0.058006 
     78 H36         3.213666   -9.636818   -2.375547 H         1 <1>         0.058006 
     79 H37         4.798136  -10.519687   -3.959420 H         1 <1>         0.209494 
     80 H38        13.671600  -11.448782    7.539162 H         1 <1>         0.058006 
     81 H39        12.657536  -11.077278    8.970879 H         1 <1>         0.058006 
     82 H40        14.764315  -12.060962    9.594821 H         1 <1>         0.209494 
@<TRIPOS>BOND
     1    2    1 ar   
     2    2    3 ar   
     3    3    4 ar   
     4    4    5 ar   
     5    5    6 ar   
     6    1    6 ar   
     7    4    7 1    
     8    7    8 1    
     9    8    9 1    
    10    9   10 1    
    11   10   11 ar   
    12   11   12 ar   
    13   12   13 ar   
    14   13   14 ar   
    15   14   15 ar   
    16   10   15 ar   
    17    9   16 1    
    18   16   17 1    
    19   17   18 2    
    20   18   19 1    
    21   19   20 1    
    22    9   20 1    
    23   17   21 1    
    24   19   22 2    
    25   18   23 1    
    26   23   24 1    
    27   24   25 ar   
    28   25   26 ar   
    29   26   27 ar   
    30   27   28 ar   
    31   28   29 ar   
    32   24   29 ar   
    33   26   30 1    
    34   29   31 1    
    35   31   32 1    
    36   31   33 1    
    37   31   34 1    
    38   13   35 1    
    39   27   36 1    
    40   36   37 1    
    41   35   38 1    
    42   38   39 1    
    43   39   40 1    
    44   37   41 1    
    45   41   42 1    
    46    1   43 1    
    47    2   44 1    
    48    3   45 1    
    49    5   46 1    
    50    6   47 1    
    51    7   48 1    
    52    7   49 1    
    53    8   50 1    
    54    8   51 1    
    55   11   52 1    
    56   12   53 1    
    57   14   54 1    
    58   15   55 1    
    59   16   56 1    
    60   16   57 1    
    61   21   58 1    
    62   25   59 1    
    63   28   60 1    
    64   30   61 1    
    65   30   62 1    
    66   30   63 1    
    67   32   64 1    
    68   32   65 1    
    69   32   66 1    
    70   33   67 1    
    71   33   68 1    
    72   33   69 1    
    73   34   70 1    
    74   34   71 1    
    75   34   72 1    
    76   37   73 1    
    77   37   74 1    
    78   38   75 1    
    79   38   76 1    
    80   39   77 1    
    81   39   78 1    
    82   40   79 1    
    83   41   80 1    
    84   41   81 1    
    85   42   82 1    
@<TRIPOS>SUBSTRUCTURE
     1 ****        2 TEMP              0 ****  ****    0 ROOT 
@<TRIPOS>SET
ATOM$CYAN       STATIC     ATOMS    COLORGROUP SYSTEM 
82 1 2 3 4 5 6 7 8 9 10 11 12 13 14 15 16 17 18 19 \
 20 21 22 23 24 25 26 27 28 29 30 31 32 33 34 35 36 37 \
 38 39 40 41 42 43 44 45 46 47 48 49 50 51 52 53 54 55 \
 56 57 58 59 60 61 62 63 64 65 66 67 68 69 70 71 72 73 \
 74 75 76 77 78 79 80 81 82
@<TRIPOS>NORMAL
@<TRIPOS>FF_PBC
FORCE_FIELD_SETUP_FEATURE Force Field Setup information
v1.0  0 0.000000 0.000000 0.000000 0.000000 0.000000 0.000000 NONE 0 0 0 0 1 0 0 0 0 0 0 0 0
