#	Name:			Ha18
#	Creating user name:	ccollar
#	Creation time:		Fri Jul 29 17:25:04 2005

#	Modifying user name:	ccollar
#	Modification time:	Fri Jul 29 20:13:53 2005

@<TRIPOS>MOLECULE
Ha18
   75    78     1     1     1
SMALL
GASTEIGER


@<TRIPOS>ATOM
      1 C1         13.941466   -9.890731    1.216774 C.ar      1 <1>        -0.061742 
      2 C2         14.115524   -8.506827    1.129898 C.ar      1 <1>        -0.061501 
      3 C3         13.001948   -7.663065    1.083272 C.ar      1 <1>        -0.058571 
      4 C4         11.708745   -8.198255    1.102160 C.ar      1 <1>        -0.047254 
      5 C5         11.539776   -9.584819    1.185422 C.ar      1 <1>        -0.058571 
      6 C6         12.652171  -10.429305    1.245839 C.ar      1 <1>        -0.061501 
      7 C7         10.482565   -7.277042    1.037660 C.3       1 <1>        -0.024728 
      8 C8          9.961419   -7.022052    2.476101 C.3       1 <1>        -0.014588 
      9 C9          8.805602   -5.974039    2.496472 C.3       1 <1>         0.110179 
     10 C10         7.656523   -6.455797    1.579802 C.ar      1 <1>        -0.014716 
     11 C11         7.019689   -7.682761    1.815254 C.ar      1 <1>        -0.053380 
     12 C12         5.999612   -8.136098    0.973820 C.ar      1 <1>        -0.031330 
     13 C13         5.597071   -7.363662   -0.116082 C.ar      1 <1>         0.076292 
     14 C14         6.205898   -6.130139   -0.350433 C.ar      1 <1>        -0.031330 
     15 C15         7.226747   -5.681131    0.492539 C.ar      1 <1>        -0.053380 
     16 C16         8.254836   -5.757070    3.932359 C.3       1 <1>         0.028875 
     17 C17         9.340415   -5.136333    4.776358 C.2       1 <1>         0.072466 
     18 C18        10.256937   -4.344372    4.211116 C.2       1 <1>         0.109818 
     19 C19        10.163068   -4.058073    2.768026 C.2       1 <1>         0.303514 
     20 O20         9.326938   -4.734675    1.966575 O.3       1 <1>        -0.299209 
     21 O21         9.369554   -5.381904    6.093095 O.3       1 <1>        -0.362708 
     22 O22        10.843968   -3.170666    2.282157 O.2       1 <1>        -0.258537 
     23 S23        11.583355   -3.618251    5.165589 S.3       1 <1>        -0.081046 
     24 C24        12.160561   -5.130809    5.893021 C.ar      1 <1>         0.017058 
     25 C25        12.710761   -6.091400    5.040567 C.ar      1 <1>        -0.042346 
     26 C26        12.860767   -7.413762    5.461551 C.ar      1 <1>        -0.019675 
     27 C27        12.442274   -7.755119    6.749745 C.ar      1 <1>         0.075816 
     28 C28        12.014313   -6.749365    7.626221 C.ar      1 <1>        -0.026941 
     29 C29        12.044058   -5.391518    7.269689 C.ar      1 <1>        -0.025809 
     30 C30        13.461638   -8.462646    4.518876 C.3       1 <1>        -0.037240 
     31 C31        11.968998   -4.273355    8.356126 C.3       1 <1>        -0.011543 
     32 C32        10.563011   -3.606062    8.378913 C.3       1 <1>        -0.056008 
     33 C33        13.082570   -3.209797    8.099434 C.3       1 <1>        -0.056008 
     34 C34        12.235850   -4.826818    9.795317 C.3       1 <1>        -0.056008 
     35 O35         4.591562   -7.822314   -0.964978 O.3       1 <1>        -0.342438 
     36 O36        12.456857   -9.098777    7.140107 O.3       1 <1>        -0.359561 
     37 H1         14.806035  -10.545904    1.261891 H         1 <1>         0.061758 
     38 C38         5.085087   -8.536845   -2.110853 C.3       1 <1>         0.077290 
     39 C39         3.879843   -8.986424   -2.971328 C.3       1 <1>         0.068050 
     40 O40         4.310083   -9.664049   -4.166363 O.3       1 <1>        -0.392728 
     41 H2         15.116383   -8.086887    1.100943 H         1 <1>         0.061766 
     42 H3         13.148604   -6.588740    1.034330 H         1 <1>         0.062029 
     43 H4         10.541836  -10.011126    1.205561 H         1 <1>         0.062029 
     44 H5         12.514853  -11.504083    1.315344 H         1 <1>         0.061766 
     45 H6          9.703569   -7.749402    0.418514 H         1 <1>         0.031417 
     46 H7         10.756442   -6.324492    0.557145 H         1 <1>         0.031417 
     47 H8         10.809071   -6.665757    3.077010 H         1 <1>         0.029969 
     48 H9          9.641168   -7.978484    2.915672 H         1 <1>         0.029969 
     49 H10         7.304024   -8.307108    2.654079 H         1 <1>         0.062199 
     50 H11         5.514787   -9.088628    1.160707 H         1 <1>         0.064337 
     51 H12         5.880681   -5.524550   -1.189944 H         1 <1>         0.064337 
     52 H13         7.676258   -4.717014    0.281064 H         1 <1>         0.062199 
     53 H14         7.932197   -6.720960    4.352250 H         1 <1>         0.036464 
     54 H15         7.391922   -5.074004    3.910265 H         1 <1>         0.036464 
     55 H16         8.674486   -5.935639    6.430847 H         1 <1>         0.216929 
     56 H17        13.009790   -5.805814    4.037274 H         1 <1>         0.063213 
     57 H18        11.651290   -7.057199    8.595758 H         1 <1>         0.064653 
     58 H19        13.918461   -9.290496    5.081156 H         1 <1>         0.027833 
     59 H20        14.238689   -8.007696    3.887303 H         1 <1>         0.027833 
     60 H21        12.661610   -8.862845    3.879144 H         1 <1>         0.027833 
     61 H22        10.327711   -3.081898    7.444959 H         1 <1>         0.023804 
     62 H23        10.502007   -2.868244    9.193619 H         1 <1>         0.023804 
     63 H24         9.789678   -4.370815    8.546891 H         1 <1>         0.023804 
     64 H25        14.064033   -3.706735    8.055354 H         1 <1>         0.023804 
     65 H26        13.111216   -2.461024    8.905780 H         1 <1>         0.023804 
     66 H27        12.943596   -2.650694    7.168052 H         1 <1>         0.023804 
     67 H28        13.163613   -5.419727    9.814734 H         1 <1>         0.023804 
     68 H29        11.403786   -5.445948   10.162189 H         1 <1>         0.023804 
     69 H30        12.347326   -4.009283   10.524286 H         1 <1>         0.023804 
     70 H31        12.340496   -9.244662    8.071977 H         1 <1>         0.217325 
     71 H32         5.658165   -9.421546   -1.788513 H         1 <1>         0.058777 
     72 H33         5.738992   -7.890831   -2.719526 H         1 <1>         0.058777 
     73 H34         3.310830   -8.093324   -3.274993 H         1 <1>         0.058006 
     74 H35         3.212317   -9.629470   -2.372933 H         1 <1>         0.058006 
     75 H36         4.788161  -10.468420   -3.989140 H         1 <1>         0.209494 
@<TRIPOS>BOND
     1    2    1 ar   
     2    2    3 ar   
     3    3    4 ar   
     4    4    5 ar   
     5    5    6 ar   
     6    1    6 ar   
     7    4    7 1    
     8    7    8 1    
     9    8    9 1    
    10    9   10 1    
    11   10   11 ar   
    12   11   12 ar   
    13   12   13 ar   
    14   13   14 ar   
    15   14   15 ar   
    16   10   15 ar   
    17    9   16 1    
    18   16   17 1    
    19   17   18 2    
    20   18   19 1    
    21   19   20 1    
    22    9   20 1    
    23   17   21 1    
    24   19   22 2    
    25   18   23 1    
    26   23   24 1    
    27   24   25 ar   
    28   25   26 ar   
    29   26   27 ar   
    30   27   28 ar   
    31   28   29 ar   
    32   24   29 ar   
    33   26   30 1    
    34   29   31 1    
    35   31   32 1    
    36   31   33 1    
    37   31   34 1    
    38   13   35 1    
    39   27   36 1    
    40    1   37 1    
    41   35   38 1    
    42   38   39 1    
    43   39   40 1    
    44    2   41 1    
    45    3   42 1    
    46    5   43 1    
    47    6   44 1    
    48    7   45 1    
    49    7   46 1    
    50    8   47 1    
    51    8   48 1    
    52   11   49 1    
    53   12   50 1    
    54   14   51 1    
    55   15   52 1    
    56   16   53 1    
    57   16   54 1    
    58   21   55 1    
    59   25   56 1    
    60   28   57 1    
    61   30   58 1    
    62   30   59 1    
    63   30   60 1    
    64   32   61 1    
    65   32   62 1    
    66   32   63 1    
    67   33   64 1    
    68   33   65 1    
    69   33   66 1    
    70   34   67 1    
    71   34   68 1    
    72   34   69 1    
    73   36   70 1    
    74   38   71 1    
    75   38   72 1    
    76   39   73 1    
    77   39   74 1    
    78   40   75 1    
@<TRIPOS>SUBSTRUCTURE
     1 ****        2 TEMP              0 ****  ****    0 ROOT 
@<TRIPOS>SET
ATOM$CYAN       STATIC     ATOMS    COLORGROUP SYSTEM 
75 1 2 3 4 5 6 7 8 9 10 11 12 13 14 15 16 17 18 19 \
 20 21 22 23 24 25 26 27 28 29 30 31 32 33 34 35 36 37 \
 38 39 40 41 42 43 44 45 46 47 48 49 50 51 52 53 54 55 \
 56 57 58 59 60 61 62 63 64 65 66 67 68 69 70 71 72 73 \
 74 75
@<TRIPOS>NORMAL
@<TRIPOS>FF_PBC
FORCE_FIELD_SETUP_FEATURE Force Field Setup information
v1.0  0 0.000000 0.000000 0.000000 0.000000 0.000000 0.000000 NONE 0 0 0 0 1 0 0 0 0 0 0 0 0
