#	Name:			Ha19
#	Creating user name:	ccollar
#	Creation time:		Fri Jul 29 17:25:04 2005

#	Modifying user name:	ccollar
#	Modification time:	Fri Jul 29 20:19:30 2005

@<TRIPOS>MOLECULE
Ha19
   81    84     1     1     1
SMALL
GASTEIGER


@<TRIPOS>ATOM
      1 C1         14.014495   -8.764409    1.206160 C.ar      1 <1>        -0.061742 
      2 C2         14.322433   -7.409308    1.354096 C.ar      1 <1>        -0.061501 
      3 C3         13.297055   -6.469774    1.496531 C.ar      1 <1>        -0.058571 
      4 C4         11.957898   -6.875971    1.468570 C.ar      1 <1>        -0.047254 
      5 C5         11.654872   -8.233775    1.317512 C.ar      1 <1>        -0.058571 
      6 C6         12.679188   -9.176523    1.190177 C.ar      1 <1>        -0.061501 
      7 C7         10.824894   -5.849073    1.603983 C.3       1 <1>        -0.024728 
      8 C8         10.303098   -5.844865    3.064963 C.3       1 <1>        -0.014588 
      9 C9          9.225008   -4.739040    3.289854 C.3       1 <1>         0.110179 
     10 C10         8.067360   -4.931770    2.282187 C.ar      1 <1>        -0.014716 
     11 C11         7.347474   -6.134433    2.240821 C.ar      1 <1>        -0.053380 
     12 C12         6.324943   -6.327813    1.307509 C.ar      1 <1>        -0.031330 
     13 C13         6.000961   -5.314425    0.404955 C.ar      1 <1>         0.076292 
     14 C14         6.688566   -4.101068    0.453417 C.ar      1 <1>        -0.031330 
     15 C15         7.712644   -3.912816    1.386240 C.ar      1 <1>        -0.053380 
     16 C16         8.650067   -4.781914    4.731795 C.3       1 <1>         0.028875 
     17 C17         9.749264   -4.426279    5.701339 C.2       1 <1>         0.072466 
     18 C18        10.733747   -3.604458    5.324907 C.2       1 <1>         0.109818 
     19 C19        10.705388   -3.025696    3.969293 C.2       1 <1>         0.303514 
     20 O20         9.848994   -3.461052    3.032950 O.3       1 <1>        -0.299209 
     21 O21         9.721713   -4.935195    6.940273 O.3       1 <1>        -0.362708 
     22 O22        11.461670   -2.111936    3.685956 O.2       1 <1>        -0.258537 
     23 S23        12.072785   -3.186165    6.433145 S.3       1 <1>        -0.081048 
     24 C24        12.551498   -4.857489    6.788554 C.ar      1 <1>         0.016918 
     25 C25        13.074027   -5.621882    5.742903 C.ar      1 <1>        -0.044452 
     26 C26        13.125220   -7.014369    5.835092 C.ar      1 <1>        -0.044026 
     27 C27        12.585993   -7.621487    6.974963 C.ar      1 <1>        -0.018690 
     28 C28        12.241057   -6.825948    8.074897 C.ar      1 <1>        -0.051393 
     29 C29        12.385922   -5.429785    8.060977 C.ar      1 <1>        -0.027908 
     30 C30        13.754654   -7.831737    4.699196 C.3       1 <1>        -0.039344 
     31 C31        12.378677   -4.602254    9.383529 C.3       1 <1>        -0.011614 
     32 C32        11.022283   -3.863796    9.574707 C.3       1 <1>        -0.056009 
     33 C33        13.564393   -3.586999    9.378103 C.3       1 <1>        -0.056009 
     34 C34        12.594912   -5.502463   10.644787 C.3       1 <1>        -0.056009 
     35 O35         4.995050   -5.514579   -0.538594 O.3       1 <1>        -0.342438 
     36 C36        12.371340   -9.141660    7.028337 C.3       1 <1>         0.072579 
     37 O37        13.624028   -9.744148    7.408033 O.3       1 <1>        -0.378388 
     38 C38         5.483270   -5.942968   -1.821370 C.3       1 <1>         0.077290 
     39 C39         4.277766   -6.127517   -2.774184 C.3       1 <1>         0.068050 
     40 O40         4.704837   -6.504510   -4.096265 O.3       1 <1>        -0.392728 
     41 C41        13.572284  -11.182184    7.464971 C.3       1 <1>         0.036869 
     42 H1         14.810914   -9.495252    1.104276 H         1 <1>         0.061758 
     43 H2         15.359104   -7.086518    1.360899 H         1 <1>         0.061766 
     44 H3         13.548583   -5.422530    1.630829 H         1 <1>         0.062029 
     45 H4         10.620279   -8.561470    1.299742 H         1 <1>         0.062029 
     46 H5         12.437743  -10.229173    1.078514 H         1 <1>         0.061766 
     47 H6         10.018853   -6.113026    0.901296 H         1 <1>         0.031417 
     48 H7         11.189528   -4.846530    1.329651 H         1 <1>         0.031417 
     49 H8         11.165505   -5.678043    3.724939 H         1 <1>         0.029969 
     50 H9          9.906697   -6.842069    3.307301 H         1 <1>         0.029969 
     51 H10         7.567836   -6.940573    2.930622 H         1 <1>         0.062199 
     52 H11         5.777384   -7.264045    1.277221 H         1 <1>         0.064337 
     53 H12         6.422130   -3.307369   -0.236754 H         1 <1>         0.064337 
     54 H13         8.224396   -2.956604    1.396782 H         1 <1>         0.062199 
     55 H14         8.250573   -5.785519    4.938742 H         1 <1>         0.036464 
     56 H15         7.836545   -4.048165    4.839361 H         1 <1>         0.036464 
     57 H16         8.980838   -5.493715    7.147170 H         1 <1>         0.216929 
     58 H17        13.428326   -5.121998    4.847323 H         1 <1>         0.063143 
     59 H18        11.852780   -7.330444    8.947723 H         1 <1>         0.062431 
     60 H19        12.961133   -8.164005    4.014260 H         1 <1>         0.027763 
     61 H20        14.287782   -8.709772    5.091911 H         1 <1>         0.027763 
     62 H21        14.480322   -7.224444    4.138870 H         1 <1>         0.027763 
     63 H22        10.833397   -3.119563    8.791648 H         1 <1>         0.023804 
     64 H23        11.005764   -3.336766   10.541023 H         1 <1>         0.023804 
     65 H24        10.196406   -4.591044    9.563346 H         1 <1>         0.023804 
     66 H25        14.509594   -4.124825    9.206172 H         1 <1>         0.023804 
     67 H26        13.639114   -3.057046   10.339983 H         1 <1>         0.023804 
     68 H27        13.469183   -2.813359    8.608600 H         1 <1>         0.023804 
     69 H28        13.477877   -6.146791   10.510813 H         1 <1>         0.023804 
     70 H29        11.718542   -6.131549   10.860122 H         1 <1>         0.023804 
     71 H30        12.758911   -4.893908   11.547489 H         1 <1>         0.023804 
     72 H31        12.034561   -9.496781    6.041798 H         1 <1>         0.060976 
     73 H32        11.586187   -9.392215    7.759137 H         1 <1>         0.060976 
     74 H33         6.023534   -6.898530   -1.721088 H         1 <1>         0.058777 
     75 H34         6.166132   -5.190780   -2.249409 H         1 <1>         0.058777 
     76 H35         3.740550   -5.168953   -2.852698 H         1 <1>         0.058006 
     77 H36         3.582387   -6.875537   -2.356971 H         1 <1>         0.058006 
     78 H37         5.155745   -7.343032   -4.119294 H         1 <1>         0.209494 
     79 H38        13.325585  -11.611977    6.481618 H         1 <1>         0.052363 
     80 H39        12.839968  -11.527981    8.211034 H         1 <1>         0.052363 
     81 H40        14.568125  -11.542926    7.761853 H         1 <1>         0.052363 
@<TRIPOS>BOND
     1    2    1 ar   
     2    2    3 ar   
     3    3    4 ar   
     4    4    5 ar   
     5    5    6 ar   
     6    1    6 ar   
     7    4    7 1    
     8    7    8 1    
     9    8    9 1    
    10    9   10 1    
    11   10   11 ar   
    12   11   12 ar   
    13   12   13 ar   
    14   13   14 ar   
    15   14   15 ar   
    16   10   15 ar   
    17    9   16 1    
    18   16   17 1    
    19   17   18 2    
    20   18   19 1    
    21   19   20 1    
    22    9   20 1    
    23   17   21 1    
    24   19   22 2    
    25   18   23 1    
    26   23   24 1    
    27   24   25 ar   
    28   25   26 ar   
    29   26   27 ar   
    30   27   28 ar   
    31   28   29 ar   
    32   24   29 ar   
    33   26   30 1    
    34   29   31 1    
    35   31   32 1    
    36   31   33 1    
    37   31   34 1    
    38   13   35 1    
    39   27   36 1    
    40   36   37 1    
    41   35   38 1    
    42   38   39 1    
    43   39   40 1    
    44   37   41 1    
    45    1   42 1    
    46    2   43 1    
    47    3   44 1    
    48    5   45 1    
    49    6   46 1    
    50    7   47 1    
    51    7   48 1    
    52    8   49 1    
    53    8   50 1    
    54   11   51 1    
    55   12   52 1    
    56   14   53 1    
    57   15   54 1    
    58   16   55 1    
    59   16   56 1    
    60   21   57 1    
    61   25   58 1    
    62   28   59 1    
    63   30   60 1    
    64   30   61 1    
    65   30   62 1    
    66   32   63 1    
    67   32   64 1    
    68   32   65 1    
    69   33   66 1    
    70   33   67 1    
    71   33   68 1    
    72   34   69 1    
    73   34   70 1    
    74   34   71 1    
    75   36   72 1    
    76   36   73 1    
    77   38   74 1    
    78   38   75 1    
    79   39   76 1    
    80   39   77 1    
    81   40   78 1    
    82   41   79 1    
    83   41   80 1    
    84   41   81 1    
@<TRIPOS>SUBSTRUCTURE
     1 ****        2 TEMP              0 ****  ****    0 ROOT 
@<TRIPOS>SET
ATOM$CYAN       STATIC     ATOMS    COLORGROUP SYSTEM 
81 1 2 3 4 5 6 7 8 9 10 11 12 13 14 15 16 17 18 19 \
 20 21 22 23 24 25 26 27 28 29 30 31 32 33 34 35 36 37 \
 38 39 40 41 42 43 44 45 46 47 48 49 50 51 52 53 54 55 \
 56 57 58 59 60 61 62 63 64 65 66 67 68 69 70 71 72 73 \
 74 75 76 77 78 79 80 81
@<TRIPOS>NORMAL
@<TRIPOS>FF_PBC
FORCE_FIELD_SETUP_FEATURE Force Field Setup information
v1.0  0 0.000000 0.000000 0.000000 0.000000 0.000000 0.000000 NONE 0 0 0 0 1 0 0 0 0 0 0 0 0
