#	Name:			Ha2
#	Creating user name:	ccollar
#	Creation time:		Fri Jul 29 17:25:04 2005

#	Modifying user name:	ccollar
#	Modification time:	Fri Jul 29 17:50:26 2005

@<TRIPOS>MOLECULE
Ha2
   66    69     1     1     1
SMALL
GASTEIGER


@<TRIPOS>ATOM
      1 C1         17.765744  -10.133290    3.538087 C.ar      1 <1>        -0.061742 
      2 C2         17.918074   -8.957689    2.798035 C.ar      1 <1>        -0.061501 
      3 C3         16.818730   -8.396194    2.141969 C.ar      1 <1>        -0.058571 
      4 C4         15.566343   -9.018596    2.202435 C.ar      1 <1>        -0.047254 
      5 C5         15.420681  -10.199199    2.939259 C.ar      1 <1>        -0.058571 
      6 C6         16.515246  -10.753204    3.609534 C.ar      1 <1>        -0.061501 
      7 C7         14.357171   -8.417043    1.473107 C.3       1 <1>        -0.024728 
      8 C8         13.476993   -7.635223    2.483891 C.3       1 <1>        -0.014588 
      9 C9         12.323764   -6.868886    1.768366 C.3       1 <1>         0.110177 
     10 C10        11.460293   -7.878071    0.976198 C.ar      1 <1>        -0.014873 
     11 C11        10.780245   -8.910032    1.637920 C.ar      1 <1>        -0.055818 
     12 C12        10.006807   -9.833246    0.928259 C.ar      1 <1>        -0.061411 
     13 C13         9.898819   -9.736330   -0.460587 C.ar      1 <1>        -0.061739 
     14 C14        10.566811   -8.710361   -1.132318 C.ar      1 <1>        -0.061411 
     15 C15        11.339026   -7.789635   -0.417908 C.ar      1 <1>        -0.055818 
     16 C16        11.424478   -6.108515    2.777900 C.3       1 <1>         0.028875 
     17 C17        12.219022   -5.000509    3.405349 C.2       1 <1>         0.072466 
     18 C18        13.223520   -4.404653    2.745845 C.2       1 <1>         0.109818 
     19 C19        13.502851   -4.852667    1.367092 C.2       1 <1>         0.303514 
     20 O20        12.920940   -5.939640    0.836862 O.3       1 <1>        -0.299209 
     21 O21        11.831293   -4.666160    4.644840 O.3       1 <1>        -0.362708 
     22 O22        14.266728   -4.208843    0.667543 O.2       1 <1>        -0.258537 
     23 S23        14.238126   -3.081283    3.411074 S.3       1 <1>        -0.081048 
     24 C24        14.920584   -3.905911    4.828750 C.ar      1 <1>         0.016900 
     25 C25        15.585199   -5.118856    4.627764 C.ar      1 <1>        -0.044781 
     26 C26        15.803430   -5.991482    5.695495 C.ar      1 <1>        -0.049381 
     27 C27        15.348778   -5.611639    6.960124 C.ar      1 <1>        -0.058497 
     28 C28        14.830831   -4.329283    7.163969 C.ar      1 <1>        -0.056764 
     29 C29        14.789993   -3.383221    6.127687 C.ar      1 <1>        -0.028236 
     30 C30        16.515187   -7.329055    5.467753 C.3       1 <1>        -0.039675 
     31 C31        14.637620   -1.860664    6.433587 C.3       1 <1>        -0.011623 
     32 C32        15.698884   -1.055368    5.620279 C.3       1 <1>        -0.056009 
     33 C33        14.915892   -1.534291    7.938051 C.3       1 <1>        -0.056009 
     34 C34        13.201556   -1.351989    6.114931 C.3       1 <1>        -0.056009 
     35 H1         18.617041  -10.563962    4.056435 H         1 <1>         0.061758 
     36 H2         18.890517   -8.478769    2.734840 H         1 <1>         0.061766 
     37 H3         16.944806   -7.472047    1.586924 H         1 <1>         0.062029 
     38 H4         14.454077  -10.689851    2.994430 H         1 <1>         0.062029 
     39 H5         16.394232  -11.665617    4.185534 H         1 <1>         0.061766 
     40 H6         13.780345   -9.228978    1.002522 H         1 <1>         0.031417 
     41 H7         14.701433   -7.746400    0.670198 H         1 <1>         0.031417 
     42 H8         14.121909   -6.925826    3.018399 H         1 <1>         0.029969 
     43 H9         13.081756   -8.336224    3.234323 H         1 <1>         0.029969 
     44 H10        10.840642   -9.014539    2.714857 H         1 <1>         0.062120 
     45 H11         9.488313  -10.627946    1.456385 H         1 <1>         0.061768 
     46 H12         9.299879  -10.453144   -1.014074 H         1 <1>         0.061758 
     47 H13        10.485412   -8.628824   -2.212187 H         1 <1>         0.061768 
     48 H14        11.842377   -7.005355   -0.972762 H         1 <1>         0.062120 
     49 H15        11.057599   -6.783446    3.565280 H         1 <1>         0.036464 
     50 H16        10.559460   -5.666886    2.260075 H         1 <1>         0.036464 
     51 H17        12.286635   -3.944791    5.058965 H         1 <1>         0.216929 
     52 H18        15.924687   -5.385955    3.632609 H         1 <1>         0.063133 
     53 H19        15.399686   -6.309948    7.789759 H         1 <1>         0.062029 
     54 H20        14.463732   -4.099686    8.155317 H         1 <1>         0.062088 
     55 H21        17.423067   -7.162912    4.869770 H         1 <1>         0.027754 
     56 H22        15.839326   -8.006025    4.925484 H         1 <1>         0.027754 
     57 H23        16.806506   -7.803105    6.416807 H         1 <1>         0.027754 
     58 H24        16.705625   -1.442798    5.840975 H         1 <1>         0.023804 
     59 H25        15.674959    0.013116    5.884072 H         1 <1>         0.023804 
     60 H26        15.545443   -1.109221    4.536809 H         1 <1>         0.023804 
     61 H27        14.974373   -0.447995    8.107557 H         1 <1>         0.023804 
     62 H28        14.113337   -1.901426    8.594788 H         1 <1>         0.023804 
     63 H29        15.873605   -1.973926    8.257648 H         1 <1>         0.023804 
     64 H30        12.959950   -1.409205    5.046748 H         1 <1>         0.023804 
     65 H31        13.093216   -0.298845    6.416796 H         1 <1>         0.023804 
     66 H32        12.461647   -1.947448    6.671122 H         1 <1>         0.023804 
@<TRIPOS>BOND
     1    2    1 ar   
     2    2    3 ar   
     3    3    4 ar   
     4    4    5 ar   
     5    5    6 ar   
     6    1    6 ar   
     7    4    7 1    
     8    7    8 1    
     9    8    9 1    
    10    9   10 1    
    11   10   11 ar   
    12   11   12 ar   
    13   12   13 ar   
    14   13   14 ar   
    15   14   15 ar   
    16   10   15 ar   
    17    9   16 1    
    18   16   17 1    
    19   17   18 2    
    20   18   19 1    
    21   19   20 1    
    22    9   20 1    
    23   17   21 1    
    24   19   22 2    
    25   18   23 1    
    26   23   24 1    
    27   24   25 ar   
    28   25   26 ar   
    29   26   27 ar   
    30   27   28 ar   
    31   28   29 ar   
    32   24   29 ar   
    33   26   30 1    
    34   29   31 1    
    35   31   32 1    
    36   31   33 1    
    37   31   34 1    
    38    1   35 1    
    39    2   36 1    
    40    3   37 1    
    41    5   38 1    
    42    6   39 1    
    43    7   40 1    
    44    7   41 1    
    45    8   42 1    
    46    8   43 1    
    47   11   44 1    
    48   12   45 1    
    49   13   46 1    
    50   14   47 1    
    51   15   48 1    
    52   16   49 1    
    53   16   50 1    
    54   21   51 1    
    55   25   52 1    
    56   27   53 1    
    57   28   54 1    
    58   30   55 1    
    59   30   56 1    
    60   30   57 1    
    61   32   58 1    
    62   32   59 1    
    63   32   60 1    
    64   33   61 1    
    65   33   62 1    
    66   33   63 1    
    67   34   64 1    
    68   34   65 1    
    69   34   66 1    
@<TRIPOS>SUBSTRUCTURE
     1 ****        2 TEMP              0 ****  ****    0 ROOT 
@<TRIPOS>SET
ATOM$CYAN       STATIC     ATOMS    COLORGROUP SYSTEM 
66 1 2 3 4 5 6 7 8 9 10 11 12 13 14 15 16 17 18 19 \
 20 21 22 23 24 25 26 27 28 29 30 31 32 33 34 35 36 37 \
 38 39 40 41 42 43 44 45 46 47 48 49 50 51 52 53 54 55 \
 56 57 58 59 60 61 62 63 64 65 66
@<TRIPOS>NORMAL
@<TRIPOS>FF_PBC
FORCE_FIELD_SETUP_FEATURE Force Field Setup information
v1.0  0 0.000000 0.000000 0.000000 0.000000 0.000000 0.000000 NONE 0 0 0 0 1 0 0 0 0 0 0 0 0
