#	Name:			Ha20
#	Creating user name:	ccollar
#	Creation time:		Fri Jul 29 17:25:04 2005

#	Modifying user name:	ccollar
#	Modification time:	Fri Jul 29 20:20:48 2005

@<TRIPOS>MOLECULE
Ha20
   72    75     1     1     1
SMALL
GASTEIGER


@<TRIPOS>ATOM
      1 C1         14.068358   -8.749864    1.254675 C.ar      1 <1>         0.072598 
      2 C2         14.165777   -7.366523    1.422123 C.ar      1 <1>        -0.031682 
      3 C3         13.014261   -6.580084    1.518578 C.ar      1 <1>        -0.056141 
      4 C4         11.749194   -7.170336    1.423168 C.ar      1 <1>        -0.047097 
      5 C5         11.650771   -8.554769    1.246734 C.ar      1 <1>        -0.056141 
      6 C6         12.802868   -9.342865    1.165550 C.ar      1 <1>        -0.031682 
      7 C7         10.477511   -6.315256    1.513406 C.3       1 <1>        -0.024726 
      8 C8          9.905764   -6.393796    2.953370 C.3       1 <1>        -0.014588 
      9 C9          8.685867   -5.439340    3.143360 C.3       1 <1>         0.110179 
     10 C10         7.598283   -5.775973    2.096167 C.ar      1 <1>        -0.014716 
     11 C11         7.031477   -7.056610    2.038039 C.ar      1 <1>        -0.053388 
     12 C12         6.063334   -7.369788    1.079733 C.ar      1 <1>        -0.031592 
     13 C13         5.634905   -6.408531    0.163014 C.ar      1 <1>         0.072600 
     14 C14         6.185202   -5.123354    0.219053 C.ar      1 <1>        -0.031592 
     15 C15         7.153958   -4.813468    1.178640 C.ar      1 <1>        -0.053388 
     16 C16         8.074640   -5.565072    4.565550 C.3       1 <1>         0.028875 
     17 C17         9.086760   -5.076460    5.571486 C.2       1 <1>         0.072466 
     18 C18         9.968537   -4.132153    5.229282 C.2       1 <1>         0.109818 
     19 C19         9.908240   -3.552870    3.874986 C.2       1 <1>         0.303514 
     20 O20         9.145278   -4.089029    2.910634 O.3       1 <1>        -0.299209 
     21 O21         9.085223   -5.592614    6.807705 O.3       1 <1>        -0.362708 
     22 O22        10.548519   -2.547229    3.618256 O.2       1 <1>        -0.258537 
     23 S23        11.207328   -3.551689    6.380248 S.3       1 <1>        -0.081048 
     24 C24        11.879816   -5.149256    6.761126 C.ar      1 <1>         0.016918 
     25 C25        12.532191   -5.842308    5.738908 C.ar      1 <1>        -0.044452 
     26 C26        12.760192   -7.216242    5.841799 C.ar      1 <1>        -0.044034 
     27 C27        12.261548   -7.886358    6.964779 C.ar      1 <1>        -0.018935 
     28 C28        11.777273   -7.140052    8.046583 C.ar      1 <1>        -0.051401 
     29 C29        11.742058   -5.736858    8.029911 C.ar      1 <1>        -0.027908 
     30 C30        13.533505   -7.945364    4.735050 C.3       1 <1>        -0.039344 
     31 C31        11.579353   -4.915752    9.346566 C.3       1 <1>        -0.011614 
     32 C32        10.134035   -4.354903    9.481940 C.3       1 <1>        -0.056009 
     33 C33        12.626576   -3.758644    9.380561 C.3       1 <1>        -0.056009 
     34 C34        11.858831   -5.779962   10.620540 C.3       1 <1>        -0.056009 
     35 O35         4.668154   -6.751734   -0.786615 O.3       1 <1>        -0.359832 
     36 C36        12.239852   -9.421604    7.022151 C.3       1 <1>         0.069483 
     37 O37        13.530219   -9.865424    7.476660 O.3       1 <1>        -0.390408 
     38 H1         15.146433   -6.906044    1.480025 H         1 <1>         0.064328 
     39 H2         13.109973   -5.509520    1.669918 H         1 <1>         0.062108 
     40 H3         10.674716   -9.024187    1.173454 H         1 <1>         0.062108 
     41 H4         12.705391  -10.415359    1.033279 H         1 <1>         0.064328 
     42 O42        15.238614   -9.510970    1.181295 O.3       1 <1>        -0.359832 
     43 H5          9.742786   -6.684957    0.780755 H         1 <1>         0.031417 
     44 H6         10.708519   -5.270048    1.253603 H         1 <1>         0.031417 
     45 H7         10.713964   -6.123297    3.646848 H         1 <1>         0.029969 
     46 H8          9.633240   -7.436520    3.174599 H         1 <1>         0.029969 
     47 H9          7.331180   -7.831599    2.733669 H         1 <1>         0.062199 
     48 H10         5.635758   -8.366387    1.040947 H         1 <1>         0.064329 
     49 H11         5.864993   -4.358041   -0.480634 H         1 <1>         0.064329 
     50 H12         7.553291   -3.805062    1.193199 H         1 <1>         0.062199 
     51 H13         7.802548   -6.613158    4.757978 H         1 <1>         0.036464 
     52 H14         7.169661   -4.943764    4.647625 H         1 <1>         0.036464 
     53 H15         8.416047   -6.242904    6.989305 H         1 <1>         0.216929 
     54 H16        12.849644   -5.302753    4.852596 H         1 <1>         0.063143 
     55 H17        11.425066   -7.689215    8.907710 H         1 <1>         0.062431 
     56 H18        14.154793   -8.751521    5.151596 H         1 <1>         0.027763 
     57 H19        14.201491   -7.250408    4.205683 H         1 <1>         0.027763 
     58 H20        12.817297   -8.370903    4.017218 H         1 <1>         0.027763 
     59 H21         9.882555   -3.640522    8.688802 H         1 <1>         0.023804 
     60 H22        10.013610   -3.834187   10.444294 H         1 <1>         0.023804 
     61 H23         9.407920   -5.180909    9.442546 H         1 <1>         0.023804 
     62 H24        13.638206   -4.172925    9.249469 H         1 <1>         0.023804 
     63 H25        12.595523   -3.221674   10.340957 H         1 <1>         0.023804 
     64 H26        12.465204   -3.004694    8.602619 H         1 <1>         0.023804 
     65 H27        11.061325   -6.514667   10.805923 H         1 <1>         0.023804 
     66 H28        11.909587   -5.154522   11.525180 H         1 <1>         0.023804 
     67 H29        12.820697   -6.307493   10.524443 H         1 <1>         0.023804 
     68 H30         4.430415   -6.047841   -1.379540 H         1 <1>         0.217313 
     69 H31        12.007645   -9.827001    6.023721 H         1 <1>         0.060719 
     70 H32        11.451952   -9.768470    7.711288 H         1 <1>         0.060719 
     71 H33        13.601612  -10.813543    7.533385 H         1 <1>         0.209847 
     72 H34        15.096429  -10.444043    1.069373 H         1 <1>         0.217313 
@<TRIPOS>BOND
     1    2    1 ar   
     2    2    3 ar   
     3    3    4 ar   
     4    4    5 ar   
     5    5    6 ar   
     6    1    6 ar   
     7    4    7 1    
     8    7    8 1    
     9    8    9 1    
    10    9   10 1    
    11   10   11 ar   
    12   11   12 ar   
    13   12   13 ar   
    14   13   14 ar   
    15   14   15 ar   
    16   10   15 ar   
    17    9   16 1    
    18   16   17 1    
    19   17   18 2    
    20   18   19 1    
    21   19   20 1    
    22    9   20 1    
    23   17   21 1    
    24   19   22 2    
    25   18   23 1    
    26   23   24 1    
    27   24   25 ar   
    28   25   26 ar   
    29   26   27 ar   
    30   27   28 ar   
    31   28   29 ar   
    32   24   29 ar   
    33   26   30 1    
    34   29   31 1    
    35   31   32 1    
    36   31   33 1    
    37   31   34 1    
    38   13   35 1    
    39   27   36 1    
    40   36   37 1    
    41    2   38 1    
    42    3   39 1    
    43    5   40 1    
    44    6   41 1    
    45    1   42 1    
    46    7   43 1    
    47    7   44 1    
    48    8   45 1    
    49    8   46 1    
    50   11   47 1    
    51   12   48 1    
    52   14   49 1    
    53   15   50 1    
    54   16   51 1    
    55   16   52 1    
    56   21   53 1    
    57   25   54 1    
    58   28   55 1    
    59   30   56 1    
    60   30   57 1    
    61   30   58 1    
    62   32   59 1    
    63   32   60 1    
    64   32   61 1    
    65   33   62 1    
    66   33   63 1    
    67   33   64 1    
    68   34   65 1    
    69   34   66 1    
    70   34   67 1    
    71   35   68 1    
    72   36   69 1    
    73   36   70 1    
    74   37   71 1    
    75   42   72 1    
@<TRIPOS>SUBSTRUCTURE
     1 ****        2 TEMP              0 ****  ****    0 ROOT 
@<TRIPOS>SET
ATOM$CYAN       STATIC     ATOMS    COLORGROUP SYSTEM 
72 1 2 3 4 5 6 7 8 9 10 11 12 13 14 15 16 17 18 19 \
 20 21 22 23 24 25 26 27 28 29 30 31 32 33 34 35 36 37 \
 38 39 40 41 42 43 44 45 46 47 48 49 50 51 52 53 54 55 \
 56 57 58 59 60 61 62 63 64 65 66 67 68 69 70 71 72
@<TRIPOS>NORMAL
@<TRIPOS>FF_PBC
FORCE_FIELD_SETUP_FEATURE Force Field Setup information
v1.0  0 0.000000 0.000000 0.000000 0.000000 0.000000 0.000000 NONE 0 0 0 0 1 0 0 0 0 0 0 0 0
