#	Name:			Ha22
#	Creating user name:	ccollar
#	Creation time:		Fri Jul 29 17:25:04 2005

#	Modifying user name:	ccollar
#	Modification time:	Fri Jul 29 20:26:50 2005

@<TRIPOS>MOLECULE
Ha22
   77    80     1     1     1
SMALL
GASTEIGER


@<TRIPOS>ATOM
      1 C1         14.603878   -7.387583    1.004434 C.ar      1 CYCLOHEXYL    0.072598 
      2 C2         14.464727   -5.999195    0.952857 C.ar      1 CYCLOHEXYL   -0.031682 
      3 C3         13.196586   -5.412041    0.960198 C.ar      1 CYCLOHEXYL   -0.056140 
      4 C4         12.047572   -6.211891    0.984039 C.ar      1 CYCLOHEXYL   -0.046955 
      5 C5         12.188515   -7.604050    1.026297 C.ar      1 CYCLOHEXYL   -0.056140 
      6 C6         13.457961   -8.190645    1.041257 C.ar      1 CYCLOHEXYL   -0.031682 
      7 C7         10.649664   -5.575068    0.962940 C.3       1 CYCLOHEXYL   -0.020704 
      8 C8         10.016004   -5.650306    2.381240 C.3       1 CYCLOHEXYL    0.028728 
      9 C9          8.677826   -4.838714    2.571551 C.3       1 CYCLOHEXYL    0.267666 
     10 C1          7.426080   -5.267338    1.674049 C.ar      1 CYCLOHEXYL    0.285435 
     11 C2          7.270179   -6.784344    1.487750 C.ar      1 CYCLOHEXYL    0.247287 
     12 C3          6.186835   -7.230982    0.493407 C.ar      1 CYCLOHEXYL    0.242224 
     13 C4          6.139445   -6.437967   -0.822149 C.ar      1 CYCLOHEXYL    0.241977 
     14 C5          6.325891   -4.918357   -0.686281 C.ar      1 CYCLOHEXYL    0.242224 
     15 C6          7.342302   -4.451610    0.368837 C.ar      1 CYCLOHEXYL    0.247287 
     16 C16         8.364236   -4.781633    4.110178 C.3       1 CYCLOHEXYL    0.071945 
     17 C17         9.452653   -4.016899    4.824707 C.2       1 CYCLOHEXYL    0.076665 
     18 C18        10.122138   -3.046414    4.192880 C.2       1 CYCLOHEXYL    0.110076 
     19 C19         9.743761   -2.726295    2.804357 C.2       1 CYCLOHEXYL    0.306567 
     20 O20         8.903884   -3.503051    2.093085 O.3       1 CYCLOHEXYL   -0.256921 
     21 O21         9.728502   -4.318653    6.096256 O.3       1 CYCLOHEXYL   -0.362558 
     22 O22        10.160326   -1.728013    2.247611 O.2       1 CYCLOHEXYL   -0.258426 
     23 S23        11.439054   -2.123568    4.969667 S.3       1 CYCLOHEXYL   -0.081045 
     24 C24        12.312385   -3.481924    5.708281 C.ar      1 CYCLOHEXYL    0.016918 
     25 C25        12.963679   -4.376561    4.855293 C.ar      1 CYCLOHEXYL   -0.044452 
     26 C26        13.421120   -5.611109    5.321065 C.ar      1 CYCLOHEXYL   -0.044034 
     27 C27        13.131137   -5.968548    6.642692 C.ar      1 CYCLOHEXYL   -0.018935 
     28 C28        12.597663   -5.005537    7.508424 C.ar      1 CYCLOHEXYL   -0.051401 
     29 C29        12.335916   -3.688288    7.098735 C.ar      1 CYCLOHEXYL   -0.027908 
     30 C30        14.218210   -6.525377    4.380478 C.3       1 CYCLOHEXYL   -0.039344 
     31 C31        12.108815   -2.550827    8.144519 C.3       1 CYCLOHEXYL   -0.011614 
     32 C32        10.605656   -2.153680    8.225193 C.3       1 CYCLOHEXYL   -0.056009 
     33 C33        12.991735   -1.314720    7.783855 C.3       1 CYCLOHEXYL   -0.056009 
     34 C34        12.544033   -2.971025    9.588072 C.3       1 CYCLOHEXYL   -0.056009 
     35 H1         15.354302   -5.378546    0.910680 H         1 CYCLOHEXYL    0.064328 
     36 C36        13.393938   -7.394673    7.152522 C.3       1 CYCLOHEXYL    0.069483 
     37 O37        14.785914   -7.479450    7.500708 O.3       1 CYCLOHEXYL   -0.390408 
     38 H2         13.120387   -4.329172    0.947169 H         1 CYCLOHEXYL    0.062108 
     39 H3         11.313565   -8.244150    1.047682 H         1 CYCLOHEXYL    0.062108 
     40 H4         13.548444   -9.271586    1.081244 H         1 CYCLOHEXYL    0.064328 
     41 H5         10.063945   -6.106489    0.200503 H         1 CYCLOHEXYL    0.031557 
     42 O42        15.885488   -7.942050    1.020015 O.3       1 CYCLOHEXYL   -0.359832 
     43 H6         10.747038   -4.524426    0.645799 H         1 CYCLOHEXYL    0.031557 
     44 H7         10.799288   -5.243019    3.038671 H         1 CYCLOHEXYL    0.034245 
     45 H8          9.899980   -6.697361    2.699907 H         1 CYCLOHEXYL    0.034245 
     46 H9          6.586676   -4.919156    2.313948 H         1 CYCLOHEXYL    0.385140 
     47 H10         7.108467   -7.263289    2.481040 H         1 CYCLOHEXYL    0.379288 
     48 H11         8.230950   -7.248601    1.200346 H         1 CYCLOHEXYL    0.379288 
     49 H12         6.291921   -8.322488    0.275627 H         1 CYCLOHEXYL    0.379023 
     50 H13         5.186027   -7.234524    0.982776 H         1 CYCLOHEXYL    0.379023 
     51 H14         6.874915   -6.852355   -1.549706 H         1 CYCLOHEXYL    0.379017 
     52 H15         5.189512   -6.660138   -1.367706 H         1 CYCLOHEXYL    0.379017 
     53 H16         6.582295   -4.476120   -1.680235 H         1 CYCLOHEXYL    0.379023 
     54 H17         5.340428   -4.426902   -0.513695 H         1 CYCLOHEXYL    0.379023 
     55 H18         8.351589   -4.360960   -0.080466 H         1 CYCLOHEXYL    0.379288 
     56 H19         7.153037   -3.376552    0.604155 H         1 CYCLOHEXYL    0.379288 
     57 H20         8.284024   -5.808993    4.499382 H         1 CYCLOHEXYL    0.040802 
     58 H21         7.436832   -4.239625    4.353600 H         1 CYCLOHEXYL    0.040802 
     59 H22         9.208316   -4.989983    6.524968 H         1 CYCLOHEXYL    0.216932 
     60 H23        13.108567   -4.105282    3.815056 H         1 CYCLOHEXYL    0.063143 
     61 H24        12.392021   -5.317454    8.521986 H         1 CYCLOHEXYL    0.062431 
     62 H25        13.522746   -7.182738    3.838728 H         1 CYCLOHEXYL    0.027763 
     63 H26        14.945145   -7.139724    4.930839 H         1 CYCLOHEXYL    0.027763 
     64 H27        14.784257   -5.922723    3.655916 H         1 CYCLOHEXYL    0.027763 
     65 H28        10.228041   -1.722779    7.290688 H         1 CYCLOHEXYL    0.023804 
     66 H29        10.449753   -1.404437    9.016658 H         1 CYCLOHEXYL    0.023804 
     67 H30         9.998422   -3.039686    8.464563 H         1 CYCLOHEXYL    0.023804 
     68 H31        14.045022   -1.625419    7.704036 H         1 CYCLOHEXYL    0.023804 
     69 H32        12.920730   -0.535343    8.558035 H         1 CYCLOHEXYL    0.023804 
     70 H33        12.708168   -0.834729    6.841443 H         1 CYCLOHEXYL    0.023804 
     71 H34        11.863773   -3.716896   10.025585 H         1 CYCLOHEXYL    0.023804 
     72 H35        12.531219   -2.112010   10.276739 H         1 CYCLOHEXYL    0.023804 
     73 H36        13.568496   -3.375129    9.580804 H         1 CYCLOHEXYL    0.023804 
     74 H37        13.134929   -8.124107    6.367843 H         1 CYCLOHEXYL    0.060719 
     75 H38        12.768478   -7.616931    8.033204 H         1 CYCLOHEXYL    0.060719 
     76 H39        15.043139   -8.335680    7.830298 H         1 CYCLOHEXYL    0.209847 
     77 H40        15.913819   -8.890358    1.082564 H         1 CYCLOHEXYL    0.217313 
@<TRIPOS>BOND
     1    2    1 ar   
     2    3    2 ar   
     3    4    3 ar   
     4    4    5 ar   
     5    5    6 ar   
     6    6    1 ar   
     7    7    4 1    
     8    8    7 1    
     9    9    8 1    
    10   10   11 1    
    11   10   15 1    
    12   15   14 1    
    13   14   13 1    
    14   13   12 1    
    15   12   11 1    
    16   10    9 1    
    17    9   16 1    
    18   16   17 1    
    19   17   18 2    
    20   19   18 1    
    21   20   19 1    
    22    9   20 1    
    23   17   21 1    
    24   19   22 2    
    25   18   23 1    
    26   23   24 1    
    27   24   25 ar   
    28   25   26 ar   
    29   26   27 ar   
    30   28   27 ar   
    31   29   28 ar   
    32   24   29 ar   
    33   26   30 1    
    34   29   31 1    
    35   31   32 1    
    36   31   33 1    
    37   31   34 1    
    38    2   35 1    
    39   27   36 1    
    40   36   37 1    
    41    3   38 1    
    42    5   39 1    
    43    6   40 1    
    44    7   41 1    
    45    1   42 1    
    46    7   43 1    
    47    8   44 1    
    48    8   45 1    
    49   10   46 1    
    50   11   47 1    
    51   11   48 1    
    52   12   49 1    
    53   12   50 1    
    54   13   51 1    
    55   13   52 1    
    56   14   53 1    
    57   14   54 1    
    58   15   55 1    
    59   15   56 1    
    60   16   57 1    
    61   16   58 1    
    62   21   59 1    
    63   25   60 1    
    64   28   61 1    
    65   30   62 1    
    66   30   63 1    
    67   30   64 1    
    68   32   65 1    
    69   32   66 1    
    70   32   67 1    
    71   33   68 1    
    72   33   69 1    
    73   33   70 1    
    74   34   71 1    
    75   34   72 1    
    76   34   73 1    
    77   36   74 1    
    78   36   75 1    
    79   37   76 1    
    80   42   77 1    
@<TRIPOS>SUBSTRUCTURE
     1 CYCLOHEXYL    10 PERM              0 ****  ****    0 ROOT 
@<TRIPOS>SET
ATOM$CYAN       STATIC     ATOMS    COLORGROUP SYSTEM 
77 1 2 3 4 5 6 7 8 9 10 11 12 13 14 15 16 17 18 19 \
 20 21 22 23 24 25 26 27 28 29 30 31 32 33 34 35 36 37 \
 38 39 40 41 42 43 44 45 46 47 48 49 50 51 52 53 54 55 \
 56 57 58 59 60 61 62 63 64 65 66 67 68 69 70 71 72 73 \
 74 75 76 77
@<TRIPOS>NORMAL
@<TRIPOS>FF_PBC
FORCE_FIELD_SETUP_FEATURE Force Field Setup information
v1.0  0 0.000000 0.000000 0.000000 0.000000 0.000000 0.000000 NONE 0 0 0 0 1 0 0 0 0 0 0 0 0
