#	Name:			Ha23
#	Creating user name:	ccollar
#	Creation time:		Fri Jul 29 17:25:04 2005

#	Modifying user name:	ccollar
#	Modification time:	Fri Jul 29 20:32:03 2005

@<TRIPOS>MOLECULE
Ha23
   70    72     2     1     1
SMALL
GASTEIGER


@<TRIPOS>ATOM
      1 C1         14.644643   -7.358844    0.976170 C.ar      2 CYCLOHEXYL    0.072598 
      2 C2         14.410530   -5.986474    0.861831 C.ar      2 CYCLOHEXYL   -0.031682 
      3 C3         13.107741   -5.482345    0.907249 C.ar      2 CYCLOHEXYL   -0.056142 
      4 C4         12.020351   -6.353193    1.038251 C.ar      2 CYCLOHEXYL   -0.047108 
      5 C5         12.253995   -7.727901    1.153105 C.ar      2 CYCLOHEXYL   -0.056142 
      6 C6         13.558396   -8.230557    1.121877 C.ar      2 CYCLOHEXYL   -0.031682 
      7 C7         10.583217   -5.811986    1.056622 C.3       2 CYCLOHEXYL   -0.025037 
      8 C8         10.084577   -5.699146    2.522928 C.3       2 CYCLOHEXYL   -0.018536 
      9 C9          8.747353   -4.897391    2.686554 C.3       2 CYCLOHEXYL    0.087645 
     10 C1          7.581737   -5.502903    1.825208 C.3       1 ISOPROPYL   -0.016541 
     11 C2          6.259843   -4.684276    1.929212 C.3       1 ISOPROPYL   -0.060022 
     12 C3          7.272128   -7.003481    2.100169 C.3       1 ISOPROPYL   -0.060022 
     13 H1         15.251675   -5.312077    0.740362 H         2 CYCLOHEXYL    0.064328 
     14 H2         12.947309   -4.410838    0.840825 H         2 CYCLOHEXYL    0.062108 
     15 H3         11.419241   -8.412188    1.268367 H         2 CYCLOHEXYL    0.062108 
     16 C16         8.380542   -4.814960    4.198231 C.3       2 CYCLOHEXYL    0.024946 
     17 C17         9.429558   -4.001515    4.914072 C.2       2 CYCLOHEXYL    0.072142 
     18 C18        10.086032   -3.035346    4.263653 C.2       2 CYCLOHEXYL    0.109797 
     19 C19         9.743854   -2.756811    2.856268 C.2       2 CYCLOHEXYL    0.303213 
     20 O20         8.954497   -3.574300    2.142486 O.3       2 CYCLOHEXYL   -0.303695 
     21 O21         9.682878   -4.251586    6.205578 O.3       2 CYCLOHEXYL   -0.362719 
     22 O22        10.168493   -1.746791    2.320594 O.2       2 CYCLOHEXYL   -0.258547 
     23 S23        11.359338   -2.062890    5.058806 S.3       2 CYCLOHEXYL   -0.081048 
     24 C24        12.281607   -3.414328    5.747261 C.ar      2 CYCLOHEXYL    0.016918 
     25 C25        12.931902   -4.276621    4.861267 C.ar      2 CYCLOHEXYL   -0.044452 
     26 C26        13.389526   -5.525650    5.286055 C.ar      2 CYCLOHEXYL   -0.044034 
     27 C27        13.102332   -5.923767    6.596474 C.ar      2 CYCLOHEXYL   -0.018935 
     28 C28        12.602339   -4.979900    7.502213 C.ar      2 CYCLOHEXYL   -0.051401 
     29 C29        12.341213   -3.651249    7.131379 C.ar      2 CYCLOHEXYL   -0.027908 
     30 C30        14.178036   -6.415580    4.316554 C.3       2 CYCLOHEXYL   -0.039344 
     31 C31        12.150679   -2.535687    8.206216 C.3       2 CYCLOHEXYL   -0.011614 
     32 C32        10.649485   -2.150759    8.351448 C.3       2 CYCLOHEXYL   -0.056009 
     33 C33        13.009741   -1.286922    7.832624 C.3       2 CYCLOHEXYL   -0.056009 
     34 C34        12.646898   -2.983299    9.621136 C.3       2 CYCLOHEXYL   -0.056009 
     35 H4         13.718691   -9.299852    1.212115 H         2 CYCLOHEXYL    0.064328 
     36 C36        13.326730   -7.375111    7.048254 C.3       2 CYCLOHEXYL    0.069483 
     37 O37        14.703891   -7.508919    7.441066 O.3       2 CYCLOHEXYL   -0.390408 
     38 H5          9.954911   -6.497750    0.468472 H         2 CYCLOHEXYL    0.031407 
     39 H6         10.551930   -4.824934    0.568917 H         2 CYCLOHEXYL    0.031407 
     40 H7         10.889249   -5.196938    3.077757 H         2 CYCLOHEXYL    0.029641 
     41 H8          9.997175   -6.705960    2.957897 H         2 CYCLOHEXYL    0.029641 
     42 O42        15.960344   -7.830026    0.944836 O.3       2 CYCLOHEXYL   -0.359832 
     43 H9          7.885293   -5.414475    0.768475 H         1 ISOPROPYL    0.032343 
     44 H10         6.451873   -3.605392    1.824810 H         1 ISOPROPYL    0.023322 
     45 H11         5.746538   -4.861647    2.885311 H         1 ISOPROPYL    0.023322 
     46 H12         5.565239   -4.981303    1.127066 H         1 ISOPROPYL    0.023322 
     47 H13         8.136509   -7.648937    1.890564 H         1 ISOPROPYL    0.023322 
     48 H14         6.451306   -7.339986    1.447552 H         1 ISOPROPYL    0.023322 
     49 H15         6.958230   -7.159198    3.142132 H         1 ISOPROPYL    0.023322 
     50 H16         8.314535   -5.831915    4.611793 H         2 CYCLOHEXYL    0.036131 
     51 H17         7.430202   -4.294895    4.375990 H         2 CYCLOHEXYL    0.036131 
     52 H18         9.162766   -4.937376    6.609002 H         2 CYCLOHEXYL    0.216929 
     53 H19        13.069123   -3.971174    3.829142 H         2 CYCLOHEXYL    0.063143 
     54 H20        12.420138   -5.316167    8.512444 H         2 CYCLOHEXYL    0.062431 
     55 H21        13.477166   -7.078529    3.788941 H         2 CYCLOHEXYL    0.027763 
     56 H22        14.925491   -7.022639    4.847570 H         2 CYCLOHEXYL    0.027763 
     57 H23        14.714723   -5.799776    3.580681 H         2 CYCLOHEXYL    0.027763 
     58 H24        10.235237   -1.708090    7.437818 H         2 CYCLOHEXYL    0.023804 
     59 H25        10.518483   -1.416071    9.160702 H         2 CYCLOHEXYL    0.023804 
     60 H26        10.057219   -3.045235    8.597076 H         2 CYCLOHEXYL    0.023804 
     61 H27        14.060609   -1.588363    7.702269 H         2 CYCLOHEXYL    0.023804 
     62 H28        12.965709   -0.522472    8.623393 H         2 CYCLOHEXYL    0.023804 
     63 H29        12.682025   -0.793187    6.911659 H         2 CYCLOHEXYL    0.023804 
     64 H30        11.986409   -3.738995   10.071682 H         2 CYCLOHEXYL    0.023804 
     65 H31        12.662475   -2.137765   10.326093 H         2 CYCLOHEXYL    0.023804 
     66 H32        13.669947   -3.386425    9.561035 H         2 CYCLOHEXYL    0.023804 
     67 H33        13.078032   -8.062448    6.223016 H         2 CYCLOHEXYL    0.060719 
     68 H34        12.662734   -7.620327    7.893838 H         2 CYCLOHEXYL    0.060719 
     69 H35        14.927092   -8.388527    7.730385 H         2 CYCLOHEXYL    0.209847 
     70 H36        16.044731   -8.772001    1.039254 H         2 CYCLOHEXYL    0.217313 
@<TRIPOS>BOND
     1    2    1 ar   
     2    3    2 ar   
     3    4    3 ar   
     4    4    5 ar   
     5    5    6 ar   
     6    6    1 ar   
     7    7    4 1    
     8    8    7 1    
     9    9    8 1    
    10   10   11 1    
    11   10   12 1    
    12    9   10 1    
    13    2   13 1    
    14    3   14 1    
    15    5   15 1    
    16    6   35 1    
    17    9   16 1    
    18   16   17 1    
    19   17   18 2    
    20   19   18 1    
    21   20   19 1    
    22    9   20 1    
    23   17   21 1    
    24   19   22 2    
    25   18   23 1    
    26   23   24 1    
    27   24   25 ar   
    28   25   26 ar   
    29   26   27 ar   
    30   28   27 ar   
    31   29   28 ar   
    32   24   29 ar   
    33   26   30 1    
    34   29   31 1    
    35   31   32 1    
    36   31   33 1    
    37   31   34 1    
    38    7   38 1    
    39   27   36 1    
    40   36   37 1    
    41    7   39 1    
    42    8   40 1    
    43    8   41 1    
    44   10   43 1    
    45    1   42 1    
    46   11   44 1    
    47   11   45 1    
    48   11   46 1    
    49   12   47 1    
    50   12   48 1    
    51   12   49 1    
    52   16   50 1    
    53   16   51 1    
    54   21   52 1    
    55   25   53 1    
    56   28   54 1    
    57   30   55 1    
    58   30   56 1    
    59   30   57 1    
    60   32   58 1    
    61   32   59 1    
    62   32   60 1    
    63   33   61 1    
    64   33   62 1    
    65   33   63 1    
    66   34   64 1    
    67   34   65 1    
    68   34   66 1    
    69   36   67 1    
    70   36   68 1    
    71   37   69 1    
    72   42   70 1    
@<TRIPOS>SUBSTRUCTURE
     1 ISOPROPYL    10 PERM              0 ****  ****    1  
     2 CYCLOHEXYL     9 PERM              0 ****  ****    1 ROOT 
@<TRIPOS>SET
ATOM$CYAN       STATIC     ATOMS    COLORGROUP SYSTEM 
70 1 2 3 4 5 6 7 8 9 10 11 12 13 14 15 16 17 18 19 \
 20 21 22 23 24 25 26 27 28 29 30 31 32 33 34 35 36 37 \
 38 39 40 41 42 43 44 45 46 47 48 49 50 51 52 53 54 55 \
 56 57 58 59 60 61 62 63 64 65 66 67 68 69 70
@<TRIPOS>NORMAL
@<TRIPOS>FF_PBC
FORCE_FIELD_SETUP_FEATURE Force Field Setup information
v1.0  0 0.000000 0.000000 0.000000 0.000000 0.000000 0.000000 NONE 0 0 0 0 1 0 0 0 0 0 0 0 0
