#	Name:			Ha24
#	Creating user name:	ccollar
#	Creation time:		Fri Jul 29 17:25:04 2005

#	Modifying user name:	ccollar
#	Modification time:	Fri Jul 29 20:34:54 2005

@<TRIPOS>MOLECULE
Ha24
   64    66     2     1     1
SMALL
GASTEIGER


@<TRIPOS>ATOM
      1 C1         14.661096   -7.397615    0.951980 C.ar      2 CYCLOHEXYL    0.072598 
      2 C2         14.453392   -6.019604    0.856599 C.ar      2 CYCLOHEXYL   -0.031682 
      3 C3         13.160706   -5.490869    0.911457 C.ar      2 CYCLOHEXYL   -0.056142 
      4 C4         12.056405   -6.342030    1.031021 C.ar      2 CYCLOHEXYL   -0.047108 
      5 C5         12.263656   -7.722720    1.122509 C.ar      2 CYCLOHEXYL   -0.056142 
      6 C6         13.558112   -8.250058    1.085148 C.ar      2 CYCLOHEXYL   -0.031682 
      7 C7         10.629315   -5.775188    1.061974 C.3       2 CYCLOHEXYL   -0.025055 
      8 C8         10.111330   -5.736795    2.525012 C.3       2 CYCLOHEXYL   -0.019042 
      9 C9          8.782912   -4.930780    2.700349 C.3       2 CYCLOHEXYL    0.082569 
     10 C1          7.627002   -5.595720    1.902744 C.3       1 ISOPROPYL   -0.034831 
     11 H1         15.307298   -5.360093    0.742640 H         2 CYCLOHEXYL    0.064328 
     12 H2         13.021998   -4.415499    0.861155 H         2 CYCLOHEXYL    0.062108 
     13 H3         11.415689   -8.392705    1.223989 H         2 CYCLOHEXYL    0.062108 
     14 H4         13.697627   -9.323428    1.160460 H         2 CYCLOHEXYL    0.064328 
     15 H5          9.993144   -6.414579    0.431167 H         2 CYCLOHEXYL    0.031407 
     16 C16         8.389862   -4.858940    4.202927 C.3       2 CYCLOHEXYL    0.024442 
     17 C17         9.417838   -4.020698    4.920303 C.2       2 CYCLOHEXYL    0.072124 
     18 C18        10.061482   -3.047031    4.267245 C.2       2 CYCLOHEXYL    0.109797 
     19 C19         9.720547   -2.778210    2.856720 C.2       2 CYCLOHEXYL    0.303197 
     20 O20         8.941664   -3.608576    2.146474 O.3       2 CYCLOHEXYL   -0.304231 
     21 O21         9.667447   -4.259501    6.214390 O.3       2 CYCLOHEXYL   -0.362719 
     22 O22        10.133987   -1.765281    2.317747 O.2       2 CYCLOHEXYL   -0.258547 
     23 S23        11.315545   -2.052258    5.065071 S.3       2 CYCLOHEXYL   -0.081048 
     24 C24        12.263185   -3.391473    5.742819 C.ar      2 CYCLOHEXYL    0.016918 
     25 C25        12.923374   -4.238981    4.849917 C.ar      2 CYCLOHEXYL   -0.044452 
     26 C26        13.402730   -5.482459    5.266997 C.ar      2 CYCLOHEXYL   -0.044034 
     27 C27        13.124459   -5.892368    6.575704 C.ar      2 CYCLOHEXYL   -0.018935 
     28 C28        12.614161   -4.960720    7.488338 C.ar      2 CYCLOHEXYL   -0.051401 
     29 C29        12.333370   -3.633923    7.125439 C.ar      2 CYCLOHEXYL   -0.027908 
     30 C30        14.204548   -6.353332    4.291101 C.3       2 CYCLOHEXYL   -0.039344 
     31 C31        12.134086   -2.526006    8.206427 C.3       2 CYCLOHEXYL   -0.011614 
     32 C32        10.628620   -2.163062    8.362951 C.3       2 CYCLOHEXYL   -0.056009 
     33 C33        12.972954   -1.263651    7.832667 C.3       2 CYCLOHEXYL   -0.056009 
     34 C34        12.645892   -2.972968    9.615958 C.3       2 CYCLOHEXYL   -0.056009 
     35 H6         10.621976   -4.762420    0.629587 H         2 CYCLOHEXYL    0.031407 
     36 C36        13.369564   -7.343208    7.018077 C.3       2 CYCLOHEXYL    0.069483 
     37 O37        14.748596   -7.460011    7.409746 O.3       2 CYCLOHEXYL   -0.390408 
     38 H7         10.906341   -5.283168    3.134032 H         2 CYCLOHEXYL    0.029623 
     39 H8          9.974988   -6.769374    2.884217 H         2 CYCLOHEXYL    0.029623 
     40 H9          7.819881   -5.558297    0.821187 H         1 ISOPROPYL    0.025757 
     41 H10         6.684162   -5.057722    2.084502 H         1 ISOPROPYL    0.025757 
     42 O42        15.967500   -7.893588    0.914249 O.3       2 CYCLOHEXYL   -0.359832 
     43 H11         7.495624   -6.645547    2.205970 H         1 ISOPROPYL    0.025757 
     44 H12         8.336725   -5.882939    4.604616 H         2 CYCLOHEXYL    0.036113 
     45 H13         7.411197   -4.374020    4.339270 H         2 CYCLOHEXYL    0.036113 
     46 H14         9.157305   -4.954157    6.615441 H         2 CYCLOHEXYL    0.216929 
     47 H15        13.051009   -3.926733    3.818568 H         2 CYCLOHEXYL    0.063143 
     48 H16        12.439855   -5.304817    8.497348 H         2 CYCLOHEXYL    0.062431 
     49 H17        13.514026   -7.020461    3.755002 H         2 CYCLOHEXYL    0.027763 
     50 H18        14.958914   -6.955533    4.817855 H         2 CYCLOHEXYL    0.027763 
     51 H19        14.734725   -5.722804    3.563003 H         2 CYCLOHEXYL    0.027763 
     52 H20        10.202359   -1.722529    7.453808 H         2 CYCLOHEXYL    0.023804 
     53 H21        10.492445   -1.433738    9.176174 H         2 CYCLOHEXYL    0.023804 
     54 H22        10.050761   -3.066911    8.608572 H         2 CYCLOHEXYL    0.023804 
     55 H23        14.027161   -1.549560    7.694489 H         2 CYCLOHEXYL    0.023804 
     56 H24        12.923102   -0.503166    8.626904 H         2 CYCLOHEXYL    0.023804 
     57 H25        12.632313   -0.771082    6.915738 H         2 CYCLOHEXYL    0.023804 
     58 H26        11.999053   -3.739819   10.067429 H         2 CYCLOHEXYL    0.023804 
     59 H27        12.654378   -2.130373   10.324545 H         2 CYCLOHEXYL    0.023804 
     60 H28        13.673986   -3.361584    9.547230 H         2 CYCLOHEXYL    0.023804 
     61 H29        13.130140   -8.028686    6.188519 H         2 CYCLOHEXYL    0.060719 
     62 H30        12.709290   -7.602840    7.862268 H         2 CYCLOHEXYL    0.060719 
     63 H31        14.984194   -8.338193    7.693485 H         2 CYCLOHEXYL    0.209847 
     64 H32        16.033491   -8.838434    0.993362 H         2 CYCLOHEXYL    0.217313 
@<TRIPOS>BOND
     1    2    1 ar   
     2    3    2 ar   
     3    4    3 ar   
     4    4    5 ar   
     5    5    6 ar   
     6    6    1 ar   
     7    7    4 1    
     8    8    7 1    
     9    9    8 1    
    10    2   11 1    
    11    3   12 1    
    12    9   10 1    
    13    5   13 1    
    14    6   14 1    
    15    7   15 1    
    16    7   35 1    
    17    9   16 1    
    18   16   17 1    
    19   17   18 2    
    20   19   18 1    
    21   20   19 1    
    22    9   20 1    
    23   17   21 1    
    24   19   22 2    
    25   18   23 1    
    26   23   24 1    
    27   24   25 ar   
    28   25   26 ar   
    29   26   27 ar   
    30   28   27 ar   
    31   29   28 ar   
    32   24   29 ar   
    33   26   30 1    
    34   29   31 1    
    35   31   32 1    
    36   31   33 1    
    37   31   34 1    
    38    8   38 1    
    39   27   36 1    
    40   36   37 1    
    41    8   39 1    
    42   10   40 1    
    43   10   41 1    
    44   10   43 1    
    45    1   42 1    
    46   16   44 1    
    47   16   45 1    
    48   21   46 1    
    49   25   47 1    
    50   28   48 1    
    51   30   49 1    
    52   30   50 1    
    53   30   51 1    
    54   32   52 1    
    55   32   53 1    
    56   32   54 1    
    57   33   55 1    
    58   33   56 1    
    59   33   57 1    
    60   34   58 1    
    61   34   59 1    
    62   34   60 1    
    63   36   61 1    
    64   36   62 1    
    65   37   63 1    
    66   42   64 1    
@<TRIPOS>SUBSTRUCTURE
     1 ISOPROPYL    10 PERM              0 ****  ****    1  
     2 CYCLOHEXYL     9 PERM              0 ****  ****    1 ROOT 
@<TRIPOS>SET
ATOM$CYAN       STATIC     ATOMS    COLORGROUP SYSTEM 
64 1 2 3 4 5 6 7 8 9 10 11 12 13 14 15 16 17 18 19 \
 20 21 22 23 24 25 26 27 28 29 30 31 32 33 34 35 36 37 \
 38 39 40 41 42 43 44 45 46 47 48 49 50 51 52 53 54 55 \
 56 57 58 59 60 61 62 63 64
@<TRIPOS>NORMAL
@<TRIPOS>FF_PBC
FORCE_FIELD_SETUP_FEATURE Force Field Setup information
v1.0  0 0.000000 0.000000 0.000000 0.000000 0.000000 0.000000 NONE 0 0 0 0 1 0 0 0 0 0 0 0 0
