#	Name:			Ha25
#	Creating user name:	ccollar
#	Creation time:		Fri Jul 29 17:25:04 2005

#	Modifying user name:	ccollar
#	Modification time:	Fri Jul 29 20:38:41 2005

@<TRIPOS>MOLECULE
Ha25
   78    81     2     1     1
SMALL
GASTEIGER


@<TRIPOS>ATOM
      1 C1         14.972205   -7.111622    1.174835 C.ar      2 CYCLOHEXYL    0.012914 
      2 C2         14.591797   -5.775253    1.032834 C.ar      2 CYCLOHEXYL   -0.043860 
      3 C3         13.238024   -5.428033    1.015085 C.ar      2 CYCLOHEXYL   -0.057102 
      4 C4         12.254419   -6.418937    1.113819 C.ar      2 CYCLOHEXYL   -0.047169 
      5 C5         12.639094   -7.756305    1.262273 C.ar      2 CYCLOHEXYL   -0.057102 
      6 C6         13.993057   -8.103134    1.289055 C.ar      2 CYCLOHEXYL   -0.043860 
      7 C7         10.764872   -6.046590    1.059979 C.3       2 CYCLOHEXYL   -0.025037 
      8 C8         10.186362   -5.961107    2.497841 C.3       2 CYCLOHEXYL   -0.018518 
      9 C9          8.835971   -5.174559    2.646215 C.3       2 CYCLOHEXYL    0.088144 
     10 C1          7.612246   -5.816818    1.888494 C.3       1 CYCLOHEXYL   -0.010879 
     11 C2          7.491822   -7.360072    2.057414 C.3       1 CYCLOHEXYL   -0.047568 
     12 C3          6.169945   -7.891028    1.442185 C.3       1 CYCLOHEXYL   -0.052716 
     13 C4          6.083961   -7.517349   -0.059259 C.3       1 CYCLOHEXYL   -0.053037 
     14 C5          6.169277   -5.979742   -0.230393 C.3       1 CYCLOHEXYL   -0.052716 
     15 C6          7.489264   -5.435138    0.380107 C.3       1 CYCLOHEXYL   -0.047568 
     16 C16         8.502931   -5.050800    4.167477 C.3       2 CYCLOHEXYL    0.024964 
     17 C17         9.534979   -4.185476    4.846234 C.2       2 CYCLOHEXYL    0.072143 
     18 C18        10.167466   -3.231833    4.155291 C.2       2 CYCLOHEXYL    0.109797 
     19 C19         9.806769   -3.013570    2.742454 C.2       2 CYCLOHEXYL    0.303214 
     20 O20         9.006901   -3.858672    2.074688 O.3       2 CYCLOHEXYL   -0.303676 
     21 O21         9.797557   -4.378831    6.145594 O.3       2 CYCLOHEXYL   -0.362719 
     22 O22        10.221514   -2.025915    2.159452 O.2       2 CYCLOHEXYL   -0.258547 
     23 S23        11.426596   -2.201413    4.898973 S.3       2 CYCLOHEXYL   -0.081048 
     24 C24        12.355944   -3.486477    5.696820 C.ar      2 CYCLOHEXYL    0.016918 
     25 C25        13.036738   -4.396520    4.884350 C.ar      2 CYCLOHEXYL   -0.044452 
     26 C26        13.528690   -5.594174    5.407186 C.ar      2 CYCLOHEXYL   -0.044034 
     27 C27        13.228591   -5.906492    6.737643 C.ar      2 CYCLOHEXYL   -0.018935 
     28 C28        12.684300   -4.915830    7.564252 C.ar      2 CYCLOHEXYL   -0.051401 
     29 C29        12.392555   -3.624962    7.095326 C.ar      2 CYCLOHEXYL   -0.027908 
     30 C30        14.368244   -6.521265    4.518972 C.3       2 CYCLOHEXYL   -0.039344 
     31 C31        12.144916   -2.444487    8.086429 C.3       2 CYCLOHEXYL   -0.011614 
     32 C32        10.630562   -2.093181    8.167293 C.3       2 CYCLOHEXYL   -0.056009 
     33 C33        12.981604   -1.200356    7.651355 C.3       2 CYCLOHEXYL   -0.056009 
     34 C34        12.612985   -2.780422    9.541451 C.3       2 CYCLOHEXYL   -0.056009 
     35 H1         15.354148   -5.008962    0.939525 H         2 CYCLOHEXYL    0.063317 
     36 C36        13.486027   -7.314489    7.296262 C.3       2 CYCLOHEXYL    0.069483 
     37 O37        14.857964   -7.378019    7.723645 O.3       2 CYCLOHEXYL   -0.390408 
     38 H2         12.956467   -4.383568    0.924750 H         2 CYCLOHEXYL    0.062077 
     39 H3         11.885938   -8.531931    1.358283 H         2 CYCLOHEXYL    0.062077 
     40 H4         14.286065   -9.141938    1.399940 H         2 CYCLOHEXYL    0.063317 
     41 H5         10.259519   -6.823431    0.469515 H         2 CYCLOHEXYL    0.031407 
     42 N42        16.343811   -7.449653    1.206450 N.3       2 CYCLOHEXYL   -0.302255 
     43 H6         10.646077   -5.083110    0.540232 H         2 CYCLOHEXYL    0.031407 
     44 H7         10.960873   -5.454556    3.090955 H         2 CYCLOHEXYL    0.029642 
     45 H8         10.100901   -6.975224    2.917079 H         2 CYCLOHEXYL    0.029642 
     46 H9          6.705333   -5.376938    2.335369 H         1 CYCLOHEXYL    0.032878 
     47 H10         7.513783   -7.641626    3.121517 H         1 CYCLOHEXYL    0.026883 
     48 H11         8.326124   -7.867226    1.550522 H         1 CYCLOHEXYL    0.026883 
     49 H12         6.123359   -8.988149    1.550157 H         1 CYCLOHEXYL    0.026538 
     50 H13         5.308657   -7.461401    1.980323 H         1 CYCLOHEXYL    0.026538 
     51 H14         6.909677   -7.997876   -0.609931 H         1 CYCLOHEXYL    0.026529 
     52 H15         5.132925   -7.885716   -0.479730 H         1 CYCLOHEXYL    0.026529 
     53 H16         6.122391   -5.726991   -1.303534 H         1 CYCLOHEXYL    0.026538 
     54 H17         5.304485   -5.507021    0.264432 H         1 CYCLOHEXYL    0.026538 
     55 H18         8.319874   -5.838374   -0.210519 H         1 CYCLOHEXYL    0.026883 
     56 H19         7.488247   -4.340056    0.251826 H         1 CYCLOHEXYL    0.026883 
     57 H20         8.475335   -6.054069    4.617107 H         2 CYCLOHEXYL    0.036131 
     58 H21         7.533877   -4.559932    4.343830 H         2 CYCLOHEXYL    0.036131 
     59 H22         9.294106   -5.059173    6.578310 H         2 CYCLOHEXYL    0.216929 
     60 H23        13.172636   -4.169405    3.832118 H         2 CYCLOHEXYL    0.063143 
     61 H24        12.492232   -5.185804    8.592306 H         2 CYCLOHEXYL    0.062431 
     62 H25        13.700314   -7.229662    4.007890 H         2 CYCLOHEXYL    0.027763 
     63 H26        15.111091   -7.078989    5.107330 H         2 CYCLOHEXYL    0.027763 
     64 H27        14.915791   -5.934586    3.767693 H         2 CYCLOHEXYL    0.027763 
     65 H28        10.229024   -1.723748    7.216299 H         2 CYCLOHEXYL    0.023804 
     66 H29        10.457933   -1.310681    8.922070 H         2 CYCLOHEXYL    0.023804 
     67 H30        10.055901   -2.986005    8.456931 H         2 CYCLOHEXYL    0.023804 
     68 H31        14.042884   -1.481276    7.568091 H         2 CYCLOHEXYL    0.023804 
     69 H32        12.897091   -0.386498    8.387641 H         2 CYCLOHEXYL    0.023804 
     70 H33        12.666764   -0.777367    6.691612 H         2 CYCLOHEXYL    0.023804 
     71 H34        11.960832   -3.522708   10.025277 H         2 CYCLOHEXYL    0.023804 
     72 H35        12.585368   -1.889056   10.187109 H         2 CYCLOHEXYL    0.023804 
     73 H36        13.648091   -3.156299    9.536382 H         2 CYCLOHEXYL    0.023804 
     74 H37        13.274476   -8.065624    6.517531 H         2 CYCLOHEXYL    0.060719 
     75 H38        12.811734   -7.519303    8.144447 H         2 CYCLOHEXYL    0.060719 
     76 H39        15.100172   -8.227507    8.079906 H         2 CYCLOHEXYL    0.209847 
     77 H40        16.580469   -8.125738    0.397241 H         2 CYCLOHEXYL    0.123921 
     78 H41        16.592380   -7.907539    2.153342 H         2 CYCLOHEXYL    0.123921 
@<TRIPOS>BOND
     1    2    1 ar   
     2    3    2 ar   
     3    4    3 ar   
     4    4    5 ar   
     5    5    6 ar   
     6    6    1 ar   
     7    7    4 1    
     8    8    7 1    
     9    9    8 1    
    10   10   11 1    
    11   10   15 1    
    12   15   14 1    
    13   14   13 1    
    14   13   12 1    
    15   12   11 1    
    16    9   10 1    
    17    9   16 1    
    18   16   17 1    
    19   17   18 2    
    20   19   18 1    
    21   20   19 1    
    22    9   20 1    
    23   17   21 1    
    24   19   22 2    
    25   18   23 1    
    26   23   24 1    
    27   24   25 ar   
    28   25   26 ar   
    29   26   27 ar   
    30   28   27 ar   
    31   29   28 ar   
    32   24   29 ar   
    33   26   30 1    
    34   29   31 1    
    35   31   32 1    
    36   31   33 1    
    37   31   34 1    
    38    2   35 1    
    39   27   36 1    
    40   36   37 1    
    41    3   38 1    
    42    5   39 1    
    43    6   40 1    
    44    7   41 1    
    45    1   42 1    
    46    7   43 1    
    47    8   44 1    
    48    8   45 1    
    49   10   46 1    
    50   11   47 1    
    51   11   48 1    
    52   12   49 1    
    53   12   50 1    
    54   13   51 1    
    55   13   52 1    
    56   14   53 1    
    57   14   54 1    
    58   15   55 1    
    59   15   56 1    
    60   16   57 1    
    61   16   58 1    
    62   21   59 1    
    63   25   60 1    
    64   28   61 1    
    65   30   62 1    
    66   30   63 1    
    67   30   64 1    
    68   32   65 1    
    69   32   66 1    
    70   32   67 1    
    71   33   68 1    
    72   33   69 1    
    73   33   70 1    
    74   34   71 1    
    75   34   72 1    
    76   34   73 1    
    77   36   74 1    
    78   36   75 1    
    79   37   76 1    
    80   42   77 1    
    81   42   78 1    
@<TRIPOS>SUBSTRUCTURE
     1 CYCLOHEXYL    10 PERM              0 ****  ****    1  
     2 CYCLOHEXYL     9 PERM              0 ****  ****    1 ROOT 
@<TRIPOS>SET
ATOM$CYAN       STATIC     ATOMS    COLORGROUP SYSTEM 
78 1 2 3 4 5 6 7 8 9 10 11 12 13 14 15 16 17 18 19 \
 20 21 22 23 24 25 26 27 28 29 30 31 32 33 34 35 36 37 \
 38 39 40 41 42 43 44 45 46 47 48 49 50 51 52 53 54 55 \
 56 57 58 59 60 61 62 63 64 65 66 67 68 69 70 71 72 73 \
 74 75 76 77 78
@<TRIPOS>NORMAL
@<TRIPOS>FF_PBC
FORCE_FIELD_SETUP_FEATURE Force Field Setup information
v1.0  0 0.000000 0.000000 0.000000 0.000000 0.000000 0.000000 NONE 0 0 0 0 1 0 0 0 0 0 0 0 0
