#	Name:			Ha26
#	Creating user name:	ccollar
#	Creation time:		Fri Jul 29 17:25:04 2005

#	Modifying user name:	ccollar
#	Modification time:	Fri Jul 29 20:39:22 2005

@<TRIPOS>MOLECULE
Ha26
   71    73     2     1     1
SMALL
GASTEIGER


@<TRIPOS>ATOM
      1 C1         14.914858   -7.457312    0.748062 C.ar      2 CYCLOHEXYL    0.012914 
      2 C2         14.584378   -6.105453    0.629739 C.ar      2 CYCLOHEXYL   -0.043860 
      3 C3         13.247854   -5.700861    0.689773 C.ar      2 CYCLOHEXYL   -0.057102 
      4 C4         12.230008   -6.649388    0.842802 C.ar      2 CYCLOHEXYL   -0.047169 
      5 C5         12.565022   -8.002522    0.966626 C.ar      2 CYCLOHEXYL   -0.057102 
      6 C6         13.902292   -8.406707    0.916009 C.ar      2 CYCLOHEXYL   -0.043860 
      7 C7         10.757075   -6.213773    0.875057 C.3       2 CYCLOHEXYL   -0.025037 
      8 C8         10.264870   -6.114427    2.343706 C.3       2 CYCLOHEXYL   -0.018536 
      9 C9          8.958861   -5.273918    2.569303 C.3       2 CYCLOHEXYL    0.087645 
     10 C1          7.673030   -5.868166    1.879970 C.3       1 CYCLOHEXYL   -0.016541 
     11 C2          7.501916   -7.405024    2.055544 C.3       1 CYCLOHEXYL   -0.060022 
     12 H1         15.372193   -5.371959    0.494123 H         2 CYCLOHEXYL    0.063317 
     13 H2         13.006548   -4.644980    0.617382 H         2 CYCLOHEXYL    0.062077 
     14 H3         11.786090   -8.745837    1.103694 H         2 CYCLOHEXYL    0.062077 
     15 C6          7.481082   -5.474571    0.382765 C.3       1 CYCLOHEXYL   -0.060022 
     16 C16         8.715042   -5.141652    4.106308 C.3       2 CYCLOHEXYL    0.024946 
     17 C17         9.817250   -4.320211    4.726851 C.2       2 CYCLOHEXYL    0.072142 
     18 C18        10.448398   -3.391125    4.001959 C.2       2 CYCLOHEXYL    0.109797 
     19 C19        10.018486   -3.154338    2.611604 C.2       2 CYCLOHEXYL    0.303213 
     20 O20         9.148760   -3.964424    1.989294 O.3       2 CYCLOHEXYL   -0.303695 
     21 O21        10.143621   -4.527238    6.009562 O.3       2 CYCLOHEXYL   -0.362719 
     22 O22        10.439948   -2.182614    2.007012 O.2       2 CYCLOHEXYL   -0.258547 
     23 S23        11.788091   -2.414938    4.674645 S.3       2 CYCLOHEXYL   -0.081048 
     24 C24        12.707298   -3.739925    5.416987 C.ar      2 CYCLOHEXYL    0.016918 
     25 C25        13.301707   -4.675093    4.566201 C.ar      2 CYCLOHEXYL   -0.044452 
     26 C26        13.770196   -5.894749    5.058815 C.ar      2 CYCLOHEXYL   -0.044034 
     27 C27        13.533955   -6.198102    6.404148 C.ar      2 CYCLOHEXYL   -0.018935 
     28 C28        13.081604   -5.187539    7.261551 C.ar      2 CYCLOHEXYL   -0.051401 
     29 C29        12.818288   -3.884082    6.810972 C.ar      2 CYCLOHEXYL   -0.027908 
     30 C30        14.515697   -6.854647    4.122810 C.3       2 CYCLOHEXYL   -0.039344 
     31 C31        12.678127   -2.697034    7.815124 C.3       2 CYCLOHEXYL   -0.011614 
     32 C32        11.187183   -2.282084    7.982882 C.3       2 CYCLOHEXYL   -0.056009 
     33 C33        13.540509   -1.488218    7.333196 C.3       2 CYCLOHEXYL   -0.056009 
     34 C34        13.214040   -3.056676    9.240751 C.3       2 CYCLOHEXYL   -0.056009 
     35 H4         14.156546   -9.457436    1.008415 H         2 CYCLOHEXYL    0.063317 
     36 C36        13.761860   -7.617807    6.945733 C.3       2 CYCLOHEXYL    0.069483 
     37 O37        15.152531   -7.743203    7.291007 O.3       2 CYCLOHEXYL   -0.390408 
     38 H5         10.184972   -6.963815    0.311484 H         2 CYCLOHEXYL    0.031407 
     39 H6         10.650244   -5.242608    0.367174 H         2 CYCLOHEXYL    0.031407 
     40 H7         11.091445   -5.645458    2.896124 H         2 CYCLOHEXYL    0.029641 
     41 H8         10.158046   -7.127623    2.760410 H         2 CYCLOHEXYL    0.029641 
     42 N42        16.270381   -7.853497    0.701639 N.3       2 CYCLOHEXYL   -0.302255 
     43 H9          6.802325   -5.401763    2.373462 H         1 CYCLOHEXYL    0.032343 
     44 H10         6.510156   -7.719536    1.693862 H         1 CYCLOHEXYL    0.023322 
     45 H11         7.580099   -7.702724    3.110886 H         1 CYCLOHEXYL    0.023322 
     46 H12         8.255536   -7.956977    1.476611 H         1 CYCLOHEXYL    0.023322 
     47 H13         7.491382   -4.381455    0.252166 H         1 CYCLOHEXYL    0.023322 
     48 H14         6.505238   -5.836740    0.021671 H         1 CYCLOHEXYL    0.023322 
     49 H15         8.247282   -5.903465   -0.271370 H         1 CYCLOHEXYL    0.023322 
     50 H16         8.671939   -6.144532    4.555694 H         2 CYCLOHEXYL    0.036131 
     51 H17         7.777104   -4.613250    4.334699 H         2 CYCLOHEXYL    0.036131 
     52 H18         9.637893   -5.187944    6.469218 H         2 CYCLOHEXYL    0.216929 
     53 H19        13.387885   -4.449899    3.508325 H         2 CYCLOHEXYL    0.063143 
     54 H20        12.938534   -5.452086    8.298970 H         2 CYCLOHEXYL    0.062431 
     55 H21        13.789007   -7.531528    3.650652 H         2 CYCLOHEXYL    0.027763 
     56 H22        15.266186   -7.446227    4.666686 H         2 CYCLOHEXYL    0.027763 
     57 H23        15.044044   -6.289907    3.341601 H         2 CYCLOHEXYL    0.027763 
     58 H24        10.748039   -1.892420    7.056928 H         2 CYCLOHEXYL    0.023804 
     59 H25        11.091452   -1.495666    8.747202 H         2 CYCLOHEXYL    0.023804 
     60 H26        10.592491   -3.150759    8.303840 H         2 CYCLOHEXYL    0.023804 
     61 H27        14.582571   -1.813384    7.189871 H         2 CYCLOHEXYL    0.023804 
     62 H28        13.532161   -0.673292    8.073104 H         2 CYCLOHEXYL    0.023804 
     63 H29        13.189972   -1.050130    6.392780 H         2 CYCLOHEXYL    0.023804 
     64 H30        12.559716   -3.772074    9.760802 H         2 CYCLOHEXYL    0.023804 
     65 H31        13.261310   -2.166769    9.887257 H         2 CYCLOHEXYL    0.023804 
     66 H32        14.230269   -3.476014    9.176237 H         2 CYCLOHEXYL    0.023804 
     67 H33        13.471647   -8.356340    6.180390 H         2 CYCLOHEXYL    0.060719 
     68 H34        13.130673   -7.795610    7.832309 H         2 CYCLOHEXYL    0.060719 
     69 H35        15.377631   -8.603856    7.631350 H         2 CYCLOHEXYL    0.209847 
     70 H36        16.431709   -8.536998   -0.119766 H         2 CYCLOHEXYL    0.123921 
     71 H37        16.552493   -8.323946    1.632854 H         2 CYCLOHEXYL    0.123921 
@<TRIPOS>BOND
     1    2    1 ar   
     2    3    2 ar   
     3    4    3 ar   
     4    4    5 ar   
     5    5    6 ar   
     6    6    1 ar   
     7    7    4 1    
     8    8    7 1    
     9    9    8 1    
    10   10   11 1    
    11   10   15 1    
    12    2   12 1    
    13    3   13 1    
    14    5   14 1    
    15    6   35 1    
    16    9   10 1    
    17    9   16 1    
    18   16   17 1    
    19   17   18 2    
    20   19   18 1    
    21   20   19 1    
    22    9   20 1    
    23   17   21 1    
    24   19   22 2    
    25   18   23 1    
    26   23   24 1    
    27   24   25 ar   
    28   25   26 ar   
    29   26   27 ar   
    30   28   27 ar   
    31   29   28 ar   
    32   24   29 ar   
    33   26   30 1    
    34   29   31 1    
    35   31   32 1    
    36   31   33 1    
    37   31   34 1    
    38    7   38 1    
    39   27   36 1    
    40   36   37 1    
    41    7   39 1    
    42    8   40 1    
    43    8   41 1    
    44   10   43 1    
    45    1   42 1    
    46   11   44 1    
    47   11   45 1    
    48   11   46 1    
    49   15   47 1    
    50   15   48 1    
    51   15   49 1    
    52   16   50 1    
    53   16   51 1    
    54   21   52 1    
    55   25   53 1    
    56   28   54 1    
    57   30   55 1    
    58   30   56 1    
    59   30   57 1    
    60   32   58 1    
    61   32   59 1    
    62   32   60 1    
    63   33   61 1    
    64   33   62 1    
    65   33   63 1    
    66   34   64 1    
    67   34   65 1    
    68   34   66 1    
    69   36   67 1    
    70   36   68 1    
    71   37   69 1    
    72   42   70 1    
    73   42   71 1    
@<TRIPOS>SUBSTRUCTURE
     1 CYCLOHEXYL    10 PERM              0 ****  ****    1  
     2 CYCLOHEXYL     9 PERM              0 ****  ****    1 ROOT 
@<TRIPOS>SET
ATOM$CYAN       STATIC     ATOMS    COLORGROUP SYSTEM 
71 1 2 3 4 5 6 7 8 9 10 11 12 13 14 15 16 17 18 19 \
 20 21 22 23 24 25 26 27 28 29 30 31 32 33 34 35 36 37 \
 38 39 40 41 42 43 44 45 46 47 48 49 50 51 52 53 54 55 \
 56 57 58 59 60 61 62 63 64 65 66 67 68 69 70 71
@<TRIPOS>NORMAL
@<TRIPOS>FF_PBC
FORCE_FIELD_SETUP_FEATURE Force Field Setup information
v1.0  0 0.000000 0.000000 0.000000 0.000000 0.000000 0.000000 NONE 0 0 0 0 1 0 0 0 0 0 0 0 0
