#	Name:			Ha3
#	Creating user name:	ccollar
#	Creation time:		Fri Jul 29 17:25:04 2005

#	Modifying user name:	ccollar
#	Modification time:	Fri Jul 29 18:59:46 2005

@<TRIPOS>MOLECULE
Ha3
   67    70     1     1     1
SMALL
GASTEIGER


@<TRIPOS>ATOM
      1 C1         16.683283   -9.397114    2.219530 C.ar      1 <1>        -0.061742 
      2 C2         16.801520   -8.105423    1.699352 C.ar      1 <1>        -0.061501 
      3 C3         15.655187   -7.353703    1.425482 C.ar      1 <1>        -0.058571 
      4 C4         14.384451   -7.895804    1.650181 C.ar      1 <1>        -0.047254 
      5 C5         14.271339   -9.191043    2.167515 C.ar      1 <1>        -0.058571 
      6 C6         15.416776   -9.939114    2.454915 C.ar      1 <1>        -0.061501 
      7 C7         13.122175   -7.079579    1.338948 C.3       1 <1>        -0.024728 
      8 C8         12.617855   -6.406042    2.641875 C.3       1 <1>        -0.014588 
      9 C9         11.422783   -5.440357    2.370202 C.3       1 <1>         0.110177 
     10 C10        10.276458   -6.219115    1.682948 C.ar      1 <1>        -0.014873 
     11 C11         9.688025   -7.327586    2.308130 C.ar      1 <1>        -0.055818 
     12 C12         8.663624   -8.046218    1.684950 C.ar      1 <1>        -0.061411 
     13 C13         8.205144   -7.661859    0.423258 C.ar      1 <1>        -0.061739 
     14 C14         8.775364   -6.554098   -0.207303 C.ar      1 <1>        -0.061411 
     15 C15         9.799930   -5.839220    0.420109 C.ar      1 <1>        -0.055818 
     16 C16        10.890026   -4.805802    3.683898 C.3       1 <1>         0.028875 
     17 C17        11.965182   -3.919454    4.262237 C.2       1 <1>         0.072466 
     18 C18        12.839645   -3.313447    3.453096 C.2       1 <1>         0.109818 
     19 C19        12.709096   -3.492589    1.995690 C.2       1 <1>         0.303514 
     20 O20        11.885837   -4.410552    1.467837 O.3       1 <1>        -0.299209 
     21 O21        12.027405   -3.742915    5.588894 O.3       1 <1>        -0.362708 
     22 O22        13.346244   -2.778832    1.239467 O.2       1 <1>        -0.258537 
     23 S23        14.153079   -2.284943    4.097026 S.3       1 <1>        -0.081046 
     24 C24        14.802439   -3.478386    5.239029 C.ar      1 <1>         0.017058 
     25 C25        15.374210   -4.637979    4.709360 C.ar      1 <1>        -0.042346 
     26 C26        15.583084   -5.759500    5.513668 C.ar      1 <1>        -0.019675 
     27 C27        15.202575   -5.697713    6.856233 C.ar      1 <1>         0.075816 
     28 C28        14.752062   -4.483712    7.391249 C.ar      1 <1>        -0.026941 
     29 C29        14.721398   -3.303065    6.631676 C.ar      1 <1>        -0.025809 
     30 C30        16.205871   -7.029772    4.923451 C.3       1 <1>        -0.037240 
     31 C31        14.621629   -1.906129    7.320872 C.3       1 <1>        -0.011543 
     32 C32        13.190427   -1.311162    7.178763 C.3       1 <1>        -0.056008 
     33 C33        15.686198   -0.938666    6.714330 C.3       1 <1>        -0.056008 
     34 C34        14.937494   -1.976939    8.851891 C.3       1 <1>        -0.056008 
     35 O35        15.277307   -6.853109    7.642136 O.3       1 <1>        -0.359561 
     36 H1         17.573445   -9.978088    2.440558 H         1 <1>         0.061758 
     37 H2         17.784482   -7.684861    1.510094 H         1 <1>         0.061766 
     38 H3         15.758777   -6.344803    1.038882 H         1 <1>         0.062029 
     39 H4         13.291298   -9.620284    2.350133 H         1 <1>         0.062029 
     40 H5         15.322798  -10.941605    2.861148 H         1 <1>         0.061766 
     41 H6         12.350930   -7.745536    0.920566 H         1 <1>         0.031417 
     42 H7         13.349416   -6.315723    0.578588 H         1 <1>         0.031417 
     43 H8         13.461826   -5.854154    3.077401 H         1 <1>         0.029969 
     44 H9         12.342869   -7.187821    3.365600 H         1 <1>         0.029969 
     45 H10        10.014750   -7.652460    3.288902 H         1 <1>         0.062120 
     46 H11         8.222309   -8.905341    2.181488 H         1 <1>         0.061768 
     47 H12         7.411068   -8.219821   -0.063713 H         1 <1>         0.061758 
     48 H13         8.421135   -6.248397   -1.187324 H         1 <1>         0.061768 
     49 H14        10.215940   -4.982240   -0.098320 H         1 <1>         0.062120 
     50 H15        10.613293   -5.601241    4.391095 H         1 <1>         0.036464 
     51 H16        10.000546   -4.191330    3.476701 H         1 <1>         0.036464 
     52 H17        11.360900   -4.186548    6.101515 H         1 <1>         0.216929 
     53 H18        15.643721   -4.668020    3.658621 H         1 <1>         0.063213 
     54 H19        14.420008   -4.486922    8.418969 H         1 <1>         0.064653 
     55 H20        15.409962   -7.631634    4.461177 H         1 <1>         0.027833 
     56 H21        16.703111   -7.629610    5.700040 H         1 <1>         0.027833 
     57 H22        16.954007   -6.769039    4.160587 H         1 <1>         0.027833 
     58 H23        12.916267   -1.111902    6.135918 H         1 <1>         0.023804 
     59 H24        13.115188   -0.358777    7.725677 H         1 <1>         0.023804 
     60 H25        12.452117   -2.010433    7.599514 H         1 <1>         0.023804 
     61 H26        15.505721   -0.698464    5.661189 H         1 <1>         0.023804 
     62 H27        16.685633   -1.393622    6.793763 H         1 <1>         0.023804 
     63 H28        15.701591    0.022804    7.250066 H         1 <1>         0.023804 
     64 H29        14.138292   -2.478742    9.417311 H         1 <1>         0.023804 
     65 H30        15.029179   -0.970517    9.288808 H         1 <1>         0.023804 
     66 H31        15.888795   -2.503815    9.025340 H         1 <1>         0.023804 
     67 H32        15.172565   -6.708679    8.575586 H         1 <1>         0.217325 
@<TRIPOS>BOND
     1    2    1 ar   
     2    2    3 ar   
     3    3    4 ar   
     4    4    5 ar   
     5    5    6 ar   
     6    1    6 ar   
     7    4    7 1    
     8    7    8 1    
     9    8    9 1    
    10    9   10 1    
    11   10   11 ar   
    12   11   12 ar   
    13   12   13 ar   
    14   13   14 ar   
    15   14   15 ar   
    16   10   15 ar   
    17    9   16 1    
    18   16   17 1    
    19   17   18 2    
    20   18   19 1    
    21   19   20 1    
    22    9   20 1    
    23   17   21 1    
    24   19   22 2    
    25   18   23 1    
    26   23   24 1    
    27   24   25 ar   
    28   25   26 ar   
    29   26   27 ar   
    30   27   28 ar   
    31   28   29 ar   
    32   24   29 ar   
    33   26   30 1    
    34   29   31 1    
    35   31   32 1    
    36   31   33 1    
    37   31   34 1    
    38   27   35 1    
    39    1   36 1    
    40    2   37 1    
    41    3   38 1    
    42    5   39 1    
    43    6   40 1    
    44    7   41 1    
    45    7   42 1    
    46    8   43 1    
    47    8   44 1    
    48   11   45 1    
    49   12   46 1    
    50   13   47 1    
    51   14   48 1    
    52   15   49 1    
    53   16   50 1    
    54   16   51 1    
    55   21   52 1    
    56   25   53 1    
    57   28   54 1    
    58   30   55 1    
    59   30   56 1    
    60   30   57 1    
    61   32   58 1    
    62   32   59 1    
    63   32   60 1    
    64   33   61 1    
    65   33   62 1    
    66   33   63 1    
    67   34   64 1    
    68   34   65 1    
    69   34   66 1    
    70   35   67 1    
@<TRIPOS>SUBSTRUCTURE
     1 ****        2 TEMP              0 ****  ****    0 ROOT 
@<TRIPOS>SET
ATOM$CYAN       STATIC     ATOMS    COLORGROUP SYSTEM 
67 1 2 3 4 5 6 7 8 9 10 11 12 13 14 15 16 17 18 19 \
 20 21 22 23 24 25 26 27 28 29 30 31 32 33 34 35 36 37 \
 38 39 40 41 42 43 44 45 46 47 48 49 50 51 52 53 54 55 \
 56 57 58 59 60 61 62 63 64 65 66 67
@<TRIPOS>NORMAL
@<TRIPOS>FF_PBC
FORCE_FIELD_SETUP_FEATURE Force Field Setup information
v1.0  0 0.000000 0.000000 0.000000 0.000000 0.000000 0.000000 NONE 0 0 0 0 1 0 0 0 0 0 0 0 0
