#	Name:			Ha4
#	Creating user name:	ccollar
#	Creation time:		Fri Jul 29 17:25:04 2005

#	Modifying user name:	ccollar
#	Modification time:	Fri Jul 29 19:02:53 2005

@<TRIPOS>MOLECULE
Ha4
   74    77     1     1     1
SMALL
GASTEIGER


@<TRIPOS>ATOM
      1 C1         14.816683   -9.656478    2.749863 C.ar      1 <1>        -0.061742 
      2 C2         14.846710   -8.435796    2.070086 C.ar      1 <1>        -0.061501 
      3 C3         13.683193   -7.669313    1.956722 C.ar      1 <1>        -0.058571 
      4 C4         12.479769   -8.126215    2.506460 C.ar      1 <1>        -0.047254 
      5 C5         12.453677   -9.351639    3.181517 C.ar      1 <1>        -0.058571 
      6 C6         13.618951  -10.113762    3.306263 C.ar      1 <1>        -0.061501 
      7 C7         11.198480   -7.290579    2.378711 C.3       1 <1>        -0.024728 
      8 C8         11.019259   -6.440180    3.663293 C.3       1 <1>        -0.014588 
      9 C9          9.822316   -5.447073    3.540421 C.3       1 <1>         0.110177 
     10 C10         8.527803   -6.236700    3.234563 C.ar      1 <1>        -0.014873 
     11 C11         8.064936   -7.223238    4.116809 C.ar      1 <1>        -0.055818 
     12 C12         6.905413   -7.952464    3.837642 C.ar      1 <1>        -0.061411 
     13 C13         6.183579   -7.700852    2.669111 C.ar      1 <1>        -0.061739 
     14 C14         6.627533   -6.714724    1.785739 C.ar      1 <1>        -0.061411 
     15 C15         7.788079   -5.988731    2.069453 C.ar      1 <1>        -0.055818 
     16 C16         9.623924   -4.627281    4.844659 C.3       1 <1>         0.028875 
     17 C17        10.829339   -3.742483    5.046302 C.2       1 <1>         0.072466 
     18 C18        11.512793   -3.291673    3.989682 C.2       1 <1>         0.109818 
     19 C19        11.045318   -3.637713    2.635097 C.2       1 <1>         0.303514 
     20 O20        10.096042   -4.562907    2.430250 O.3       1 <1>        -0.299209 
     21 O21        11.199633   -3.410727    6.290352 O.3       1 <1>        -0.362708 
     22 O22        11.512240   -3.059238    1.668353 O.2       1 <1>        -0.258537 
     23 S23        12.970045   -2.272633    4.181060 S.3       1 <1>        -0.081046 
     24 C24        13.824591   -3.341924    5.311141 C.ar      1 <1>         0.017058 
     25 C25        14.220549   -4.596989    4.839757 C.ar      1 <1>        -0.042338 
     26 C26        14.584246   -5.612337    5.726008 C.ar      1 <1>        -0.019414 
     27 C27        14.557479   -5.332161    7.093665 C.ar      1 <1>         0.079507 
     28 C28        14.262646   -4.040842    7.538744 C.ar      1 <1>        -0.026679 
     29 C29        14.071268   -2.974385    6.646198 C.ar      1 <1>        -0.025802 
     30 C30        14.986069   -6.992794    5.194163 C.3       1 <1>        -0.037232 
     31 C31        14.153331   -1.495410    7.137508 C.3       1 <1>        -0.011543 
     32 C32        12.738236   -0.853527    7.228398 C.3       1 <1>        -0.056008 
     33 C33        15.075911   -0.671219    6.185559 C.3       1 <1>        -0.056008 
     34 C34        14.799079   -1.380147    8.558195 C.3       1 <1>        -0.056008 
     35 O35        14.823692   -6.341871    8.018598 O.3       1 <1>        -0.342167 
     36 C36        16.129132   -6.261445    8.618234 C.3       1 <1>         0.077302 
     37 C37        16.304811   -7.459036    9.578601 C.3       1 <1>         0.068051 
     38 O38        17.611675   -7.388421   10.178974 O.3       1 <1>        -0.392728 
     39 H1         15.721978  -10.248133    2.845577 H         1 <1>         0.061758 
     40 H2         15.774819   -8.081777    1.631699 H         1 <1>         0.061766 
     41 H3         13.721099   -6.715149    1.440754 H         1 <1>         0.062029 
     42 H4         11.526900   -9.714946    3.614148 H         1 <1>         0.062029 
     43 H5         13.593792  -11.061389    3.835612 H         1 <1>         0.061766 
     44 H6         10.336187   -7.959953    2.231241 H         1 <1>         0.031417 
     45 H7         11.266845   -6.637166    1.494622 H         1 <1>         0.031417 
     46 H8         11.954525   -5.888628    3.828174 H         1 <1>         0.029969 
     47 H9         10.892789   -7.114181    4.523726 H         1 <1>         0.029969 
     48 H10         8.596319   -7.442951    5.035277 H         1 <1>         0.062120 
     49 H11         6.563796   -8.716520    4.529691 H         1 <1>         0.061768 
     50 H12         5.283751   -8.267367    2.449136 H         1 <1>         0.061758 
     51 H13         6.069019   -6.512407    0.876620 H         1 <1>         0.061768 
     52 H14         8.100087   -5.228156    1.362048 H         1 <1>         0.062120 
     53 H15         9.492949   -5.313131    5.694274 H         1 <1>         0.036464 
     54 H16         8.729393   -3.991135    4.762194 H         1 <1>         0.036464 
     55 H17        10.656926   -3.750131    6.993286 H         1 <1>         0.216929 
     56 H18        14.231204   -4.786241    3.771292 H         1 <1>         0.063213 
     57 H19        14.185326   -3.907409    8.607860 H         1 <1>         0.064660 
     58 H20        14.073673   -7.542315    4.921226 H         1 <1>         0.027833 
     59 H21        15.539834   -7.577212    5.943118 H         1 <1>         0.027833 
     60 H22        15.622917   -6.881007    4.304355 H         1 <1>         0.027833 
     61 H23        12.243436   -0.778181    6.252793 H         1 <1>         0.023804 
     62 H24        12.804900    0.164574    7.641726 H         1 <1>         0.023804 
     63 H25        12.098006   -1.454301    7.891936 H         1 <1>         0.023804 
     64 H26        16.059320   -1.160511    6.110258 H         1 <1>         0.023804 
     65 H27        15.227505    0.350796    6.565246 H         1 <1>         0.023804 
     66 H28        14.671781   -0.564717    5.173259 H         1 <1>         0.023804 
     67 H29        15.757300   -1.921882    8.592186 H         1 <1>         0.023804 
     68 H30        14.136583   -1.768277    9.346084 H         1 <1>         0.023804 
     69 H31        15.000126   -0.330407    8.822405 H         1 <1>         0.023804 
     70 H32        16.247685   -5.325634    9.187935 H         1 <1>         0.058777 
     71 H33        16.912993   -6.304405    7.844296 H         1 <1>         0.058777 
     72 H34        16.187042   -8.394215    9.004846 H         1 <1>         0.058006 
     73 H35        15.516456   -7.415149   10.349352 H         1 <1>         0.058006 
     74 H36        17.781530   -8.104018   10.784771 H         1 <1>         0.209494 
@<TRIPOS>BOND
     1    2    1 ar   
     2    2    3 ar   
     3    3    4 ar   
     4    4    5 ar   
     5    5    6 ar   
     6    1    6 ar   
     7    4    7 1    
     8    7    8 1    
     9    8    9 1    
    10    9   10 1    
    11   10   11 ar   
    12   11   12 ar   
    13   12   13 ar   
    14   13   14 ar   
    15   14   15 ar   
    16   10   15 ar   
    17    9   16 1    
    18   16   17 1    
    19   17   18 2    
    20   18   19 1    
    21   19   20 1    
    22    9   20 1    
    23   17   21 1    
    24   19   22 2    
    25   18   23 1    
    26   23   24 1    
    27   24   25 ar   
    28   25   26 ar   
    29   26   27 ar   
    30   27   28 ar   
    31   28   29 ar   
    32   24   29 ar   
    33   26   30 1    
    34   29   31 1    
    35   31   32 1    
    36   31   33 1    
    37   31   34 1    
    38   27   35 1    
    39   35   36 1    
    40   36   37 1    
    41   37   38 1    
    42    1   39 1    
    43    2   40 1    
    44    3   41 1    
    45    5   42 1    
    46    6   43 1    
    47    7   44 1    
    48    7   45 1    
    49    8   46 1    
    50    8   47 1    
    51   11   48 1    
    52   12   49 1    
    53   13   50 1    
    54   14   51 1    
    55   15   52 1    
    56   16   53 1    
    57   16   54 1    
    58   21   55 1    
    59   25   56 1    
    60   28   57 1    
    61   30   58 1    
    62   30   59 1    
    63   30   60 1    
    64   32   61 1    
    65   32   62 1    
    66   32   63 1    
    67   33   64 1    
    68   33   65 1    
    69   33   66 1    
    70   34   67 1    
    71   34   68 1    
    72   34   69 1    
    73   36   70 1    
    74   36   71 1    
    75   37   72 1    
    76   37   73 1    
    77   38   74 1    
@<TRIPOS>SUBSTRUCTURE
     1 ****        2 TEMP              0 ****  ****    0 ROOT 
@<TRIPOS>SET
ATOM$CYAN       STATIC     ATOMS    COLORGROUP SYSTEM 
74 1 2 3 4 5 6 7 8 9 10 11 12 13 14 15 16 17 18 19 \
 20 21 22 23 24 25 26 27 28 29 30 31 32 33 34 35 36 37 \
 38 39 40 41 42 43 44 45 46 47 48 49 50 51 52 53 54 55 \
 56 57 58 59 60 61 62 63 64 65 66 67 68 69 70 71 72 73 \
 74
@<TRIPOS>NORMAL
@<TRIPOS>FF_PBC
FORCE_FIELD_SETUP_FEATURE Force Field Setup information
v1.0  0 0.000000 0.000000 0.000000 0.000000 0.000000 0.000000 NONE 0 0 0 0 1 0 0 0 0 0 0 0 0
