#	Name:			Ha5
#	Creating user name:	ccollar
#	Creation time:		Fri Jul 29 17:25:04 2005

#	Modifying user name:	ccollar
#	Modification time:	Fri Jul 29 19:31:43 2005

@<TRIPOS>MOLECULE
Ha5
   70    73     1     1     1
SMALL
GASTEIGER


@<TRIPOS>ATOM
      1 C1         14.828670   -9.557125    2.672892 C.ar      1 <1>        -0.061742 
      2 C2         14.924388   -8.355313    1.966127 C.ar      1 <1>        -0.061501 
      3 C3         13.810281   -7.518280    1.854286 C.ar      1 <1>        -0.058571 
      4 C4         12.588244   -7.888301    2.427744 C.ar      1 <1>        -0.047254 
      5 C5         12.496991   -9.094030    3.132070 C.ar      1 <1>        -0.058571 
      6 C6         13.613986   -9.925115    3.257929 C.ar      1 <1>        -0.061501 
      7 C7         11.354617   -6.984643    2.292595 C.3       1 <1>        -0.024728 
      8 C8         11.184050   -6.147812    3.587573 C.3       1 <1>        -0.014588 
      9 C9         10.017173   -5.119345    3.461173 C.3       1 <1>         0.110177 
     10 C10         8.707853   -5.863222    3.106996 C.ar      1 <1>        -0.014873 
     11 C11         8.201260   -6.862519    3.949953 C.ar      1 <1>        -0.055818 
     12 C12         7.028714   -7.551469    3.626397 C.ar      1 <1>        -0.061411 
     13 C13         6.337413   -7.245621    2.452355 C.ar      1 <1>        -0.061739 
     14 C14         6.824609   -6.245480    1.608408 C.ar      1 <1>        -0.061411 
     15 C15         7.997944   -5.559843    1.936463 C.ar      1 <1>        -0.055818 
     16 C16         9.806081   -4.326449    4.779790 C.3       1 <1>         0.028875 
     17 C17        11.024163   -3.473297    5.031685 C.2       1 <1>         0.072466 
     18 C18        11.743874   -3.014113    4.003348 C.2       1 <1>         0.109818 
     19 C19        11.306659   -3.320678    2.629306 C.2       1 <1>         0.303514 
     20 O20        10.341994   -4.218410    2.378620 O.3       1 <1>        -0.299209 
     21 O21        11.368645   -3.176682    6.291907 O.3       1 <1>        -0.362708 
     22 O22        11.813626   -2.733348    1.688413 O.2       1 <1>        -0.258537 
     23 S23        13.213973   -2.029556    4.259788 S.3       1 <1>        -0.081048 
     24 C24        14.031575   -3.182531    5.332793 C.ar      1 <1>         0.016918 
     25 C25        14.419866   -4.411151    4.793805 C.ar      1 <1>        -0.044452 
     26 C26        14.724788   -5.490390    5.625944 C.ar      1 <1>        -0.044034 
     27 C27        14.572382   -5.323423    7.007108 C.ar      1 <1>        -0.018935 
     28 C28        14.360880   -4.037630    7.520731 C.ar      1 <1>        -0.051401 
     29 C29        14.259420   -2.909109    6.692016 C.ar      1 <1>        -0.027908 
     30 C30        15.204800   -6.812818    5.013377 C.3       1 <1>        -0.039344 
     31 C31        14.412189   -1.466638    7.266874 C.3       1 <1>        -0.011614 
     32 C32        13.029646   -0.762240    7.386631 C.3       1 <1>        -0.056009 
     33 C33        15.378579   -0.637244    6.364133 C.3       1 <1>        -0.056009 
     34 C34        15.055142   -1.463488    8.693284 C.3       1 <1>        -0.056009 
     35 C35        14.633805   -6.528156    7.958800 C.3       1 <1>         0.069483 
     36 O36        16.016717   -6.783003    8.261120 O.3       1 <1>        -0.390408 
     37 H1         15.696135  -10.203152    2.767436 H         1 <1>         0.061758 
     38 H2         15.865602   -8.070562    1.505730 H         1 <1>         0.061766 
     39 H3         13.901579   -6.577839    1.320173 H         1 <1>         0.062029 
     40 H4         11.556082   -9.388951    3.585723 H         1 <1>         0.062029 
     41 H5         13.538125  -10.856956    3.809966 H         1 <1>         0.061766 
     42 H6         10.467649   -7.612899    2.114148 H         1 <1>         0.031417 
     43 H7         11.469822   -6.318230    1.423176 H         1 <1>         0.031417 
     44 H8         12.133598   -5.627525    3.774121 H         1 <1>         0.029969 
     45 H9         11.023407   -6.829269    4.436207 H         1 <1>         0.029969 
     46 H10         8.707993   -7.123458    4.871527 H         1 <1>         0.062120 
     47 H11         6.653135   -8.326338    4.288144 H         1 <1>         0.061768 
     48 H12         5.427740   -7.781039    2.197702 H         1 <1>         0.061758 
     49 H13         6.289789   -6.000783    0.695465 H         1 <1>         0.061768 
     50 H14         8.343584   -4.786446    1.259227 H         1 <1>         0.062120 
     51 H15         9.639006   -5.029049    5.609213 H         1 <1>         0.036464 
     52 H16         8.928325   -3.668035    4.691681 H         1 <1>         0.036464 
     53 H17        10.799281   -3.517272    6.972689 H         1 <1>         0.216929 
     54 H18        14.468893   -4.524295    3.715705 H         1 <1>         0.063143 
     55 H19        14.275870   -3.942204    8.593467 H         1 <1>         0.062431 
     56 H20        14.341902   -7.481788    4.881669 H         1 <1>         0.027763 
     57 H21        15.949203   -7.300676    5.659308 H         1 <1>         0.027763 
     58 H22        15.675775   -6.639247    4.034884 H         1 <1>         0.027763 
     59 H23        12.546515   -0.612594    6.413573 H         1 <1>         0.023804 
     60 H24        13.143208    0.228165    7.853525 H         1 <1>         0.023804 
     61 H25        12.356571   -1.365327    8.014599 H         1 <1>         0.023804 
     62 H26        16.337402   -1.169100    6.264244 H         1 <1>         0.023804 
     63 H27        15.577680    0.353892    6.799611 H         1 <1>         0.023804 
     64 H28        14.984484   -0.456299    5.358358 H         1 <1>         0.023804 
     65 H29        15.980839   -2.059959    8.699622 H         1 <1>         0.023804 
     66 H30        14.368287   -1.855009    9.458229 H         1 <1>         0.023804 
     67 H31        15.313409   -0.442318    9.013635 H         1 <1>         0.023804 
     68 H32        14.162167   -7.402651    7.481323 H         1 <1>         0.060719 
     69 H33        14.073438   -6.314659    8.884231 H         1 <1>         0.060719 
     70 H34        16.141722   -7.524924    8.845211 H         1 <1>         0.209847 
@<TRIPOS>BOND
     1    2    1 ar   
     2    2    3 ar   
     3    3    4 ar   
     4    4    5 ar   
     5    5    6 ar   
     6    1    6 ar   
     7    4    7 1    
     8    7    8 1    
     9    8    9 1    
    10    9   10 1    
    11   10   11 ar   
    12   11   12 ar   
    13   12   13 ar   
    14   13   14 ar   
    15   14   15 ar   
    16   10   15 ar   
    17    9   16 1    
    18   16   17 1    
    19   17   18 2    
    20   18   19 1    
    21   19   20 1    
    22    9   20 1    
    23   17   21 1    
    24   19   22 2    
    25   18   23 1    
    26   23   24 1    
    27   24   25 ar   
    28   25   26 ar   
    29   26   27 ar   
    30   27   28 ar   
    31   28   29 ar   
    32   24   29 ar   
    33   26   30 1    
    34   29   31 1    
    35   31   32 1    
    36   31   33 1    
    37   31   34 1    
    38   27   35 1    
    39   35   36 1    
    40    1   37 1    
    41    2   38 1    
    42    3   39 1    
    43    5   40 1    
    44    6   41 1    
    45    7   42 1    
    46    7   43 1    
    47    8   44 1    
    48    8   45 1    
    49   11   46 1    
    50   12   47 1    
    51   13   48 1    
    52   14   49 1    
    53   15   50 1    
    54   16   51 1    
    55   16   52 1    
    56   21   53 1    
    57   25   54 1    
    58   28   55 1    
    59   30   56 1    
    60   30   57 1    
    61   30   58 1    
    62   32   59 1    
    63   32   60 1    
    64   32   61 1    
    65   33   62 1    
    66   33   63 1    
    67   33   64 1    
    68   34   65 1    
    69   34   66 1    
    70   34   67 1    
    71   35   68 1    
    72   35   69 1    
    73   36   70 1    
@<TRIPOS>SUBSTRUCTURE
     1 ****        2 TEMP              0 ****  ****    0 ROOT 
@<TRIPOS>SET
ATOM$CYAN       STATIC     ATOMS    COLORGROUP SYSTEM 
70 1 2 3 4 5 6 7 8 9 10 11 12 13 14 15 16 17 18 19 \
 20 21 22 23 24 25 26 27 28 29 30 31 32 33 34 35 36 37 \
 38 39 40 41 42 43 44 45 46 47 48 49 50 51 52 53 54 55 \
 56 57 58 59 60 61 62 63 64 65 66 67 68 69 70
@<TRIPOS>NORMAL
@<TRIPOS>FF_PBC
FORCE_FIELD_SETUP_FEATURE Force Field Setup information
v1.0  0 0.000000 0.000000 0.000000 0.000000 0.000000 0.000000 NONE 0 0 0 0 1 0 0 0 0 0 0 0 0
