@<TRIPOS>MOLECULE
1MRX
37 39 1 0 0
SMALL
NO_CHARGES


@<TRIPOS>ATOM
      1 C1         10.8540   17.8030   18.9150 C.ar      1 K571001     0.0000
      2 C2         10.8460   18.4860   17.6850 C.ar      1 K571001     0.0000
      3 C3         11.9030   19.3690   17.3700 C.ar      1 K571001     0.0000
      4 C4         12.9890   19.5810   18.2850 C.ar      1 K571001     0.0000
      5 C5         12.9970   18.8820   19.5480 C.ar      1 K571001     0.0000
      6 C6         11.9130   17.9960   19.8320 C.ar      1 K571001     0.0000
      7 C7         14.1020   19.0350   20.5900 C.3       1 K571001     0.0000
      8 C8         14.0800   20.5240   17.8970 C.2       1 K571001     0.0000
      9 N9         13.7210   21.7790   17.5260 N.pl3     1 K571001     0.0000
     10 C10        14.6400   22.8260   17.0820 C.3       1 K571001     0.0000
     11 C11        14.3450   23.5460   15.7420 C.3       1 K571001     0.0000
     12 C12        14.7910   24.0120   18.0640 C.2       1 K571001     0.0000
     13 C13        16.1510   24.7410   18.2180 C.2       1 K571001     0.0000
     14 N14        17.2660   24.0940   18.7350 N.pl3     1 K571001     0.0000
     15 C15        18.5740   24.7910   18.6420 C.3       1 K571001     0.0000
     16 C16        19.5090   24.1940   19.7340 C.3       1 K571001     0.0000
     17 S17        19.0750   22.4510   19.8340 S.3       1 K571001     0.0000
     18 C18        17.3560   22.7620   19.3800 C.3       1 K571001     0.0000
     19 C19        14.1540   22.5370   14.6290 C.ar      1 K571001     0.0000
     20 C20        15.2790   22.3390   13.7900 C.ar      1 K571001     0.0000
     21 C21        15.2400   21.4220   12.7100 C.ar      1 K571001     0.0000
     22 C22        14.0490   20.6920   12.4740 C.ar      1 K571001     0.0000
     23 C23        12.9140   20.8770   13.3040 C.ar      1 K571001     0.0000
     24 C24        12.9640   21.8000   14.3820 C.ar      1 K571001     0.0000
     25 O25        13.6730   24.4750   18.7440 O.3       1 K571001     0.0000
     26 O26        16.1730   25.8630   17.7130 O.2       1 K571001     0.0000
     27 C27        19.2230   24.8250   21.1090 C.3       1 K571001     0.0000
     28 C28        21.0220   24.3140   19.4160 C.3       1 K571001     0.0000
     29 C29        19.0320   24.6000   17.1560 C.2       1 K571001     0.0000
     30 N30        19.5710   25.7230   16.5970 N.am      1 K571001     0.0000
     31 C31        20.0920   25.8960   15.2210 C.3       1 K571001     0.0000
     32 O32        18.8890   23.5170   16.5900 O.2       1 K571001     0.0000
     33 O33        11.8860   17.3100   21.0240 O.3       1 K571001     0.0000
     34 O34        15.2680   20.1750   17.8920 O.2       1 K571001     0.0000
     35 C35        20.5710   27.3550   15.1520 C.3       1 K571001     0.0000
     36 C67        18.9750   25.6600   14.1830 C.3       1 K571001     0.0000
     37 C71        21.2910   24.9600   14.9330 C.3       1 K571001     0.0000
@<TRIPOS>BOND
     1    1    6 ar
     2    6   33 1
     3    5    6 ar
     4    5    7 1
     5    4    5 ar
     6    4    8 1
     7    8   34 2
     8    8    9 2
     9    9   10 1
    10   10   11 1
    11   11   19 1
    12   19   24 ar
    13   23   24 ar
    14   22   23 ar
    15   21   22 ar
    16   20   21 ar
    17   19   20 ar
    18   10   12 1
    19   12   25 1
    20   12   13 2
    21   13   26 2
    22   13   14 2
    23   14   15 1
    24   15   29 1
    25   29   32 2
    26   29   30 am
    27   30   31 1
    28   31   37 1
    29   31   36 1
    30   31   35 1
    31   15   16 1
    32   16   28 1
    33   16   27 1
    34   16   17 1
    35   17   18 1
    36   14   18 1
    37    3    4 ar
    38    2    3 ar
    39    1    2 ar
@<TRIPOS>SUBSTRUCTURE
     1 K571001     1 RESIDUE           4 A     K57     0 ROOT
