#	Name:			Sc1
#	Creating user name:	nsalim
#	Creation time:		Sun Jan 30 12:39:59 2005

#	Modifying user name:	nsalim
#	Modification time:	Sun Jan 30 13:07:43 2005

@<TRIPOS>MOLECULE
Sc1
  107   110     8     1     0
SMALL
GASTEIGER


@<TRIPOS>ATOM
      1 C1          6.686491   15.670106   15.329678 C.ar      1 PHENYL     -0.021282 
      2 C           5.952539   16.098406   16.442767 C.ar      1 PHENYL     -0.056372 
      3 C           5.950937   15.348245   17.622602 C.ar      1 PHENYL     -0.061429 
      4 C           6.676669   14.156124   17.694143 C.ar      1 PHENYL     -0.061740 
      5 C           7.394345   13.712203   16.580126 C.ar      1 PHENYL     -0.061429 
      6 C           7.392247   14.463027   15.400639 C.ar      1 PHENYL     -0.056372 
      7 C7          6.717373   16.520558   14.051479 C.3       1 PHENYL      0.083653 
      8 O8          7.946566   16.285808   13.334344 O.3       1 PHENYL     -0.295140 
      9 C9          8.100307   17.044471   12.239496 C.2       1 PHENYL      0.353139 
     10 N10         9.288046   16.826525   11.636399 N.am      1 PHENYL     -0.279805 
     11 C11         9.722926   17.631447   10.490153 C.3       1 PHENYL      0.103775 
     12 C12        10.448826   16.733046    9.501069 C.2       1 PHENYL      0.233986 
     13 N13        11.156584   17.268070    8.474596 N.am      1 PHENYL     -0.308078 
     14 C14        11.924339   16.442509    7.527027 C.3       1 PHENYL      0.054959 
     15 C15        10.989445   15.898301    6.402411 C.3       1 PHENYL      0.097537 
     16 C16        11.761248   15.188705    5.250810 C.3       1 PHENYL      0.112915 
     17 C17        10.990502   15.320864    3.952828 C.2       1 PHENYL      0.233264 
     18 N18        11.219535   16.383072    3.145450 N.am      1 PHENYL     -0.302393 
     19 C19        10.624088   16.414283    1.807992 C.3       1 PHENYL      0.101694 
     20 C20        11.317556   15.379586    0.944261 C.2       1 PHENYL      0.233871 
     21 N21        10.739882   14.992934   -0.217445 N.am      1 PHENYL     -0.309666 
     22 C22        11.386294   13.996760   -1.069849 C.3       1 PHENYL      0.036886 
     23 C          11.102750   14.311392   -2.544628 C.ar      2 PHENYL     -0.030323 
     24 C          10.550254   13.353913   -3.403395 C.ar      2 PHENYL     -0.057077 
     25 C          10.306733   13.667454   -4.744059 C.ar      2 PHENYL     -0.061452 
     26 C          10.613465   14.940497   -5.232946 C.ar      2 PHENYL     -0.061740 
     27 C          11.163071   15.900322   -4.378448 C.ar      2 PHENYL     -0.061452 
     28 C          11.405936   15.584972   -3.038373 C.ar      2 PHENYL     -0.057077 
     29 O29         7.262699   17.846608   11.858539 O.2       1 PHENYL     -0.241337 
     30 O30        10.361363   15.529693    9.677802 O.2       1 PHENYL     -0.273760 
     31 O31        10.191062   14.445821    3.659486 O.2       1 PHENYL     -0.273988 
     32 O32        12.387579   14.924333    1.317334 O.2       1 PHENYL     -0.273762 
     33 C33        12.780236   15.355297    8.249151 C.3       1 PHENYL     -0.006715 
     34 C          14.024458   14.833370    7.502562 C.ar      3 PHENYL     -0.045529 
     35 C          14.249942   13.454421    7.396039 C.ar      3 PHENYL     -0.058512 
     36 C          15.356616   12.957879    6.701185 C.ar      3 PHENYL     -0.061501 
     37 C          16.237723   13.839121    6.071214 C.ar      3 PHENYL     -0.061742 
     38 C          16.040849   15.216281    6.196158 C.ar      3 PHENYL     -0.061501 
     39 C          14.965372   15.707255    6.942530 C.ar      3 PHENYL     -0.058512 
     40 C1         10.587815   18.818900   11.025036 C.3       4 ISOPROPYL   -0.019657 
     41 C2         11.947573   18.333808   11.600459 C.3       4 ISOPROPYL   -0.060524 
     42 C3          9.827836   19.654004   12.094325 C.3       4 ISOPROPYL   -0.060524 
     43 C1         10.667775   17.815169    1.119853 C.3       5 ISOPROPYL   -0.019730 
     44 C2         12.110612   18.263570    0.748743 C.3       5 ISOPROPYL   -0.060525 
     45 C3          9.964291   18.890544    1.994626 C.3       5 ISOPROPYL   -0.060525 
     46 O1         10.279603   17.009724    5.813666 O.3       6 OH         -0.387906 
     47 N47        12.028255   13.751810    5.521613 N.3       1 PHENYL     -0.299550 
     48 H1          5.378475   17.018742   16.397300 H         1 PHENYL      0.062101 
     49 C49        12.903734   13.117160    4.501645 C.3       8 <8>         0.021997 
     50 C          13.372406   11.683895    4.800007 C.ar      7 PHENYL     -0.033558 
     51 C          14.407355   11.151305    4.021065 C.ar      7 PHENYL     -0.057350 
     52 C          14.895182    9.864184    4.262624 C.ar      7 PHENYL     -0.061461 
     53 C          14.339623    9.089070    5.283318 C.ar      7 PHENYL     -0.061741 
     54 C          13.296245    9.605913    6.055543 C.ar      7 PHENYL     -0.061461 
     55 C          12.813987   10.895946    5.814293 C.ar      7 PHENYL     -0.057350 
     56 H2          5.385910   15.691608   18.484127 H         1 PHENYL      0.061767 
     57 H3          6.682495   13.576358   18.612375 H         1 PHENYL      0.061758 
     58 H4          7.954186   12.783117   16.631079 H         1 PHENYL      0.061767 
     59 H5          7.944272   14.100692   14.539179 H         1 PHENYL      0.062101 
     60 H6          6.646300   17.583656   14.336539 H         1 PHENYL      0.061655 
     61 H7          5.844699   16.247567   13.436595 H         1 PHENYL      0.061655 
     62 H8          9.912499   16.128007   11.992087 H         1 PHENYL      0.151734 
     63 H9          8.855634   18.034385    9.941553 H         1 PHENYL      0.059775 
     64 H10        11.152731   18.257084    8.321702 H         1 PHENYL      0.149127 
     65 H11        12.618891   17.132204    7.022865 H         1 PHENYL      0.052746 
     66 H12        10.257309   15.191182    6.828205 H         1 PHENYL      0.063235 
     67 H13        12.722605   15.705871    5.114945 H         1 PHENYL      0.058313 
     68 H14        11.857840   17.100703    3.417630 H         1 PHENYL      0.149509 
     69 H15         9.563262   16.123620    1.891320 H         1 PHENYL      0.059702 
     70 H16         9.845628   15.344639   -0.500619 H         1 PHENYL      0.149075 
     71 H17        11.019492   12.996878   -0.790542 H         1 PHENYL      0.051152 
     72 H18        12.482346   14.002504   -0.958263 H         1 PHENYL      0.051152 
     73 H19        10.307541   12.361940   -3.036201 H         2 PHENYL      0.062079 
     74 H20         9.878749   12.921307   -5.406917 H         2 PHENYL      0.061767 
     75 H21        10.425356   15.183253   -6.274502 H         2 PHENYL      0.061758 
     76 H22        11.401320   16.890401   -4.755547 H         2 PHENYL      0.061767 
     77 H23        11.832921   16.333542   -2.378105 H         2 PHENYL      0.062079 
     78 H24        12.131809   14.504606    8.499729 H         1 PHENYL      0.033193 
     79 H25        13.161172   15.782497    9.189251 H         1 PHENYL      0.033193 
     80 H26        13.567527   12.750415    7.859026 H         3 PHENYL      0.062030 
     81 H27        15.531553   11.887290    6.648776 H         3 PHENYL      0.061766 
     82 H28        17.071239   13.455472    5.490768 H         3 PHENYL      0.061758 
     83 H29        16.728165   15.906145    5.716037 H         3 PHENYL      0.061766 
     84 H30        14.882938   16.778004    7.086846 H         3 PHENYL      0.062030 
     85 H31        10.798803   19.515645   10.196664 H         4 ISOPROPYL    0.031803 
     86 H32        12.548566   19.195559   11.929985 H         4 ISOPROPYL    0.023302 
     87 H33        12.525215   17.788428   10.839543 H         4 ISOPROPYL    0.023302 
     88 H34        11.792803   17.672136   12.465330 H         4 ISOPROPYL    0.023302 
     89 H35        10.410634   20.547500   12.369229 H         4 ISOPROPYL    0.023302 
     90 H36         9.658510   19.067554   13.009745 H         4 ISOPROPYL    0.023302 
     91 H37         8.855382   19.989088   11.700901 H         4 ISOPROPYL    0.023302 
     92 H38        10.103180   17.746697    0.172272 H         5 ISOPROPYL    0.031802 
     93 H39        12.077673   19.226672    0.216008 H         5 ISOPROPYL    0.023302 
     94 H40        12.592965   17.528694    0.086254 H         5 ISOPROPYL    0.023302 
     95 H41        12.738339   18.391115    1.641752 H         5 ISOPROPYL    0.023302 
     96 H42         9.918210   19.849755    1.455650 H         5 ISOPROPYL    0.023302 
     97 H43        10.504833   19.053021    2.938505 H         5 ISOPROPYL    0.023302 
     98 H44         8.935094   18.579175    2.231823 H         5 ISOPROPYL    0.023302 
     99 H45         9.688538   17.450181    6.416089 H         6 OH          0.209942 
    100 H46        11.083625   13.223253    5.568986 H         1 PHENYL      0.123028 
    101 H47        13.816015   13.725231    4.395789 H         8 <8>         0.047363 
    102 H48        12.405484   13.082680    3.519137 H         8 <8>         0.047363 
    103 H49        14.841254   11.740958    3.219255 H         7 PHENYL      0.062070 
    104 H50        15.704629    9.467075    3.657438 H         7 PHENYL      0.061767 
    105 H51        14.717002    8.089285    5.474907 H         7 PHENYL      0.061758 
    106 H52        12.858955    9.002856    6.845346 H         7 PHENYL      0.061767 
    107 H53        12.004289   11.269874    6.428774 H         7 PHENYL      0.062070 
@<TRIPOS>BOND
     1    1    2 ar   
     2    1    6 ar   
     3    6    5 ar   
     4    5    4 ar   
     5    4    3 ar   
     6    3    2 ar   
     7    1    7 1    
     8    7    8 1    
     9    8    9 1    
    10    9   10 am   
    11   10   11 1    
    12   11   12 1    
    13   12   13 am   
    14   13   14 1    
    15   14   15 1    
    16   15   16 1    
    17   16   17 1    
    18   17   18 am   
    19   18   19 1    
    20   19   20 1    
    21   20   21 am   
    22   21   22 1    
    23   23   24 ar   
    24   23   28 ar   
    25   28   27 ar   
    26   27   26 ar   
    27   26   25 ar   
    28   25   24 ar   
    29   22   23 1    
    30    9   29 2    
    31   12   30 2    
    32   17   31 2    
    33   20   32 2    
    34   14   33 1    
    35   34   35 ar   
    36   34   39 ar   
    37   39   38 ar   
    38   38   37 ar   
    39   37   36 ar   
    40   36   35 ar   
    41   33   34 1    
    42   40   41 1    
    43   40   42 1    
    44   11   40 1    
    45   43   44 1    
    46   43   45 1    
    47   19   43 1    
    48   16   47 1    
    49   15   46 1    
    50   49   47 1    
    51    2   48 1    
    52   50   51 ar   
    53   50   55 ar   
    54   55   54 ar   
    55   54   53 ar   
    56   53   52 ar   
    57   52   51 ar   
    58   49   50 1    
    59    3   56 1    
    60    4   57 1    
    61    5   58 1    
    62    6   59 1    
    63    7   60 1    
    64    7   61 1    
    65   10   62 1    
    66   11   63 1    
    67   13   64 1    
    68   14   65 1    
    69   15   66 1    
    70   16   67 1    
    71   18   68 1    
    72   19   69 1    
    73   21   70 1    
    74   22   71 1    
    75   22   72 1    
    76   24   73 1    
    77   25   74 1    
    78   26   75 1    
    79   27   76 1    
    80   28   77 1    
    81   33   78 1    
    82   33   79 1    
    83   35   80 1    
    84   36   81 1    
    85   37   82 1    
    86   38   83 1    
    87   39   84 1    
    88   40   85 1    
    89   41   86 1    
    90   41   87 1    
    91   41   88 1    
    92   42   89 1    
    93   42   90 1    
    94   42   91 1    
    95   43   92 1    
    96   44   93 1    
    97   44   94 1    
    98   44   95 1    
    99   45   96 1    
   100   45   97 1    
   101   45   98 1    
   102   46   99 1    
   103   47  100 1    
   104   49  101 1    
   105   49  102 1    
   106   51  103 1    
   107   52  104 1    
   108   53  105 1    
   109   54  106 1    
   110   55  107 1    
@<TRIPOS>SUBSTRUCTURE
     1 PHENYL      1 PERM              0 ****  ****    6  
     2 PHENYL     23 PERM              0 ****  ****    1  
     3 PHENYL     34 PERM              0 ****  ****    1  
     4 ISOPROPYL    40 PERM              0 ****  ****    1  
     5 ISOPROPYL    43 PERM              0 ****  ****    1  
     6 OH         46 PERM              0 ****  ****    1  
     7 PHENYL     50 PERM              0 ****  ****    1  
     8 ****       49 PERM              0 ****  ****    2 ROOT 
@<TRIPOS>NORMAL
@<TRIPOS>FF_PBC
FORCE_FIELD_SETUP_FEATURE Force Field Setup information
v1.0  0 0.000000 0.000000 0.000000 0.000000 0.000000 0.000000 NONE 0 0 0 0 1 0 0 0 0 0 0 0 0
