#	Name:			Sc10
#	Creating user name:	nsalim
#	Creation time:		Wed Feb  9 13:31:46 2005

#	Modifying user name:	nsalim
#	Modification time:	Wed Feb  9 13:32:12 2005

@<TRIPOS>MOLECULE
Sc10
  109   112     7     1     0
SMALL
GASTEIGER


@<TRIPOS>ATOM
      1 C1          7.821144   14.061156   14.981378 C.ar      1 PHENYL     -0.021282 
      2 C           7.404538   14.188158   16.312133 C.ar      1 PHENYL     -0.056372 
      3 C           7.724246   13.200531   17.248917 C.ar      1 PHENYL     -0.061429 
      4 C           8.460154   12.077599   16.860277 C.ar      1 PHENYL     -0.061740 
      5 C           8.874407   11.943451   15.532290 C.ar      1 PHENYL     -0.061429 
      6 C           8.553658   12.932119   14.597391 C.ar      1 PHENYL     -0.056372 
      7 C7          7.491477   15.134473   13.936050 C.3       1 PHENYL      0.083653 
      8 O8          8.696057   15.419174   13.197559 O.3       1 PHENYL     -0.295140 
      9 C9          8.537055   16.314748   12.213350 C.2       1 PHENYL      0.353139 
     10 N10         9.686292   16.542589   11.544146 N.am      1 PHENYL     -0.279805 
     11 C11         9.739502   17.489739   10.427906 C.3       1 PHENYL      0.103775 
     12 C12        10.695374   16.971154    9.374088 C.2       1 PHENYL      0.233986 
     13 N13        10.715526   17.549067    8.148269 N.am      1 PHENYL     -0.308078 
     14 C14        11.639384   17.079718    7.109398 C.3       1 PHENYL      0.054958 
     15 C15        11.415036   15.561173    6.809902 C.3       1 PHENYL      0.097529 
     16 C16        11.825247   15.103462    5.374926 C.3       1 PHENYL      0.112684 
     17 C17        10.976380   15.761623    4.301889 C.2       1 PHENYL      0.233256 
     18 N18        11.507905   15.922766    3.066462 N.am      1 PHENYL     -0.302393 
     19 C19        10.718191   16.471134    1.958602 C.3       1 PHENYL      0.101694 
     20 C20        11.215499   15.871821    0.657596 C.2       1 PHENYL      0.233871 
     21 N21        10.479695   15.999585   -0.470389 N.am      1 PHENYL     -0.309666 
     22 C22        10.976329   15.442895   -1.726750 C.3       1 PHENYL      0.036886 
     23 C          10.293017   16.113733   -2.926605 C.ar      2 PHENYL     -0.030323 
     24 C           9.617415   15.362593   -3.895398 C.ar      2 PHENYL     -0.057077 
     25 C           9.004868   15.998930   -4.979343 C.ar      2 PHENYL     -0.061452 
     26 C           9.062832   17.390114   -5.099106 C.ar      2 PHENYL     -0.061740 
     27 C           9.735599   18.144430   -4.133683 C.ar      2 PHENYL     -0.061452 
     28 C          10.349566   17.506310   -3.052202 C.ar      2 PHENYL     -0.057077 
     29 O29         7.469535   16.852615   11.964244 O.2       1 PHENYL     -0.241337 
     30 O30        11.424509   16.042975    9.684567 O.2       1 PHENYL     -0.273760 
     31 O31         9.840219   16.113721    4.576263 O.2       1 PHENYL     -0.273988 
     32 O32        12.287385   15.286847    0.665808 O.2       1 PHENYL     -0.273762 
     33 C33        13.084726   17.467215    7.541886 C.3       1 PHENYL     -0.006715 
     34 C          14.139440   17.039366    6.514647 C.ar      3 PHENYL     -0.045529 
     35 C          14.973004   15.942584    6.766002 C.ar      3 PHENYL     -0.058512 
     36 C          15.894419   15.521632    5.803552 C.ar      3 PHENYL     -0.061501 
     37 C37        15.985226   16.192107    4.581124 C.ar      3 PHENYL     -0.061742 
     38 C          15.184260   17.312074    4.341816 C.ar      3 PHENYL     -0.061501 
     39 C          14.269274   17.738752    5.309258 C.ar      3 PHENYL     -0.058512 
     40 C1         10.184488   18.902521   10.914415 C.3       4 ISOPROPYL   -0.019657 
     41 C2         11.624636   18.883105   11.499723 C.3       4 ISOPROPYL   -0.060524 
     42 C3          9.190551   19.476986   11.961349 C.3       4 ISOPROPYL   -0.060524 
     43 C1         10.801612   18.025986    1.870200 C.3       5 ISOPROPYL   -0.019730 
     44 C2         12.270669   18.505744    1.716001 C.3       5 ISOPROPYL   -0.060525 
     45 C3         10.142530   18.717490    3.094261 C.3       5 ISOPROPYL   -0.060525 
     46 O1         10.037041   15.210298    7.045050 O.3       6 OH         -0.387906 
     47 N47        11.712942   13.621830    5.319272 N.3       1 PHENYL     -0.303205 
     48 C1         12.915909   12.815373    5.630099 C.3       7 CYCLOHEXYL    0.002050 
     49 C49        15.101946   11.870765    4.749202 C.ar      7 CYCLOHEXYL    0.042480 
     50 N50        16.288497   12.503110    4.633561 N.ar      7 CYCLOHEXYL   -0.259842 
     51 C51        17.449463   11.910489    4.981540 C.ar      7 CYCLOHEXYL    0.027865 
     52 C52        17.455129   10.599632    5.465452 C.ar      7 CYCLOHEXYL   -0.043577 
     53 C53        16.245639    9.908674    5.571007 C.ar      7 CYCLOHEXYL   -0.058635 
     54 C54        15.059656   10.546200    5.197906 C.ar      7 CYCLOHEXYL   -0.040349 
     55 H1          6.829960   15.053331   16.627393 H         1 PHENYL      0.062101 
     56 H2          7.400601   13.305421   18.280179 H         1 PHENYL      0.061767 
     57 H3          8.709412   11.311190   17.588101 H         1 PHENYL      0.061758 
     58 C58        13.818821   12.621816    4.382874 C.3       7 CYCLOHEXYL    0.002167 
     59 H4          9.445316   11.071678   15.226837 H         1 PHENYL      0.061767 
     60 H5          8.876632   12.820506   13.566799 H         1 PHENYL      0.062101 
     61 H6          7.116792   16.050567   14.421631 H         1 PHENYL      0.061655 
     62 H7          6.706828   14.725889   13.278418 H         1 PHENYL      0.061655 
     63 H8         10.528512   16.063109   11.801878 H         1 PHENYL      0.151734 
     64 H9          8.753817   17.561431    9.938140 H         1 PHENYL      0.059775 
     65 H10        10.094462   18.304129    7.928452 H         1 PHENYL      0.149127 
     66 H11        11.421172   17.626567    6.178442 H         1 PHENYL      0.052746 
     67 H12        11.999484   14.974128    7.534440 H         1 PHENYL      0.063235 
     68 H13        12.865789   15.379274    5.176500 H         1 PHENYL      0.058306 
     69 H14        12.451327   15.648294    2.863193 H         1 PHENYL      0.149509 
     70 H15         9.664618   16.161754    2.057814 H         1 PHENYL      0.059702 
     71 H16         9.579336   16.439085   -0.463633 H         1 PHENYL      0.149075 
     72 H17        10.811073   14.354123   -1.725084 H         1 PHENYL      0.051152 
     73 H18        12.057436   15.625592   -1.840182 H         1 PHENYL      0.051152 
     74 H19         9.564285   14.281751   -3.813646 H         2 PHENYL      0.062079 
     75 H20         8.483542   15.411679   -5.729273 H         2 PHENYL      0.061767 
     76 H21         8.586405   17.883981   -5.940569 H         2 PHENYL      0.061758 
     77 H22         9.781293   19.225460   -4.224228 H         2 PHENYL      0.061767 
     78 H23        10.873537   18.095845   -2.306065 H         2 PHENYL      0.062079 
     79 H24        13.329639   17.026011    8.518170 H         1 PHENYL      0.033193 
     80 H25        13.138410   18.560854    7.663991 H         1 PHENYL      0.033193 
     81 H26        14.908722   15.405606    7.707092 H         3 PHENYL      0.062030 
     82 H27        16.539957   14.673520    6.007483 H         3 PHENYL      0.061766 
     83 H28        16.678448   15.844337    3.821151 H         3 PHENYL      0.061758 
     84 H29        15.275928   17.850064    3.403312 H         3 PHENYL      0.061766 
     85 H30        13.656431   18.614237    5.119547 H         3 PHENYL      0.062030 
     86 H31        10.183993   19.587360   10.048148 H         4 ISOPROPYL    0.031803 
     87 H32        11.676960   18.227947   12.382183 H         4 ISOPROPYL    0.023302 
     88 H33        11.923313   19.898140   11.805226 H         4 ISOPROPYL    0.023302 
     89 H34        12.350922   18.526268   10.753149 H         4 ISOPROPYL    0.023302 
     90 H35         9.468238   20.509745   12.224278 H         4 ISOPROPYL    0.023302 
     91 H36         9.200802   18.874406   12.882009 H         4 ISOPROPYL    0.023302 
     92 H37         8.166438   19.488786   11.556771 H         4 ISOPROPYL    0.023302 
     93 H38        10.241325   18.355391    0.977389 H         5 ISOPROPYL    0.031802 
     94 H39        12.860526   18.207243    2.593942 H         5 ISOPROPYL    0.023302 
     95 H40        12.308649   19.602770    1.628567 H         5 ISOPROPYL    0.023302 
     96 H41        12.735892   18.074431    0.816504 H         5 ISOPROPYL    0.023302 
     97 H42        10.110673   19.808528    2.947263 H         5 ISOPROPYL    0.023302 
     98 H43        10.718493   18.514743    4.006913 H         5 ISOPROPYL    0.023302 
     99 H44         9.110906   18.359405    3.235021 H         5 ISOPROPYL    0.023302 
    100 H45         9.446420   15.662949    6.449780 H         6 OH          0.209942 
    101 H46        11.235278   13.279448    4.408229 H         1 PHENYL      0.122725 
    102 H47        12.568884   11.836216    5.996245 H         7 CYCLOHEXYL    0.042784 
    103 H48        13.500722   13.283910    6.438019 H         7 CYCLOHEXYL    0.042784 
    104 H49        18.378356   12.462031    4.881729 H         7 CYCLOHEXYL    0.082944 
    105 H50        18.387365   10.124516    5.754708 H         7 CYCLOHEXYL    0.063265 
    106 H51        16.227500    8.887255    5.939252 H         7 CYCLOHEXYL    0.061858 
    107 H52        14.116467   10.013610    5.257072 H         7 CYCLOHEXYL    0.063543 
    108 H53        14.096689   13.601989    3.965774 H         7 CYCLOHEXYL    0.034056 
    109 H54        13.285679   12.054346    3.604021 H         7 CYCLOHEXYL    0.034056 
@<TRIPOS>BOND
     1    1    2 ar   
     2    1    6 ar   
     3    6    5 ar   
     4    5    4 ar   
     5    4    3 ar   
     6    3    2 ar   
     7    1    7 1    
     8    7    8 1    
     9    8    9 1    
    10    9   10 am   
    11   10   11 1    
    12   11   12 1    
    13   12   13 am   
    14   13   14 1    
    15   14   15 1    
    16   15   16 1    
    17   16   17 1    
    18   17   18 am   
    19   18   19 1    
    20   19   20 1    
    21   20   21 am   
    22   21   22 1    
    23   23   24 ar   
    24   23   28 ar   
    25   28   27 ar   
    26   27   26 ar   
    27   26   25 ar   
    28   25   24 ar   
    29   22   23 1    
    30    9   29 2    
    31   12   30 2    
    32   17   31 2    
    33   20   32 2    
    34   14   33 1    
    35   34   35 ar   
    36   34   39 ar   
    37   39   38 ar   
    38   37   36 ar   
    39   38   37 ar   
    40   35   36 ar   
    41   33   34 1    
    42   40   41 1    
    43   40   42 1    
    44   11   40 1    
    45   43   44 1    
    46   43   45 1    
    47   19   43 1    
    48   16   47 1    
    49   15   46 1    
    50   48   58 1    
    51   49   50 ar   
    52   50   51 ar   
    53   51   52 ar   
    54   53   52 ar   
    55   54   53 ar   
    56   47   48 1    
    57   49   54 ar   
    58    2   55 1    
    59    3   56 1    
    60    4   57 1    
    61    5   59 1    
    62   58   49 1    
    63    6   60 1    
    64    7   61 1    
    65    7   62 1    
    66   10   63 1    
    67   11   64 1    
    68   13   65 1    
    69   14   66 1    
    70   15   67 1    
    71   16   68 1    
    72   18   69 1    
    73   19   70 1    
    74   21   71 1    
    75   22   72 1    
    76   22   73 1    
    77   24   74 1    
    78   25   75 1    
    79   26   76 1    
    80   27   77 1    
    81   28   78 1    
    82   33   79 1    
    83   33   80 1    
    84   35   81 1    
    85   36   82 1    
    86   37   83 1    
    87   38   84 1    
    88   39   85 1    
    89   40   86 1    
    90   41   87 1    
    91   41   88 1    
    92   41   89 1    
    93   42   90 1    
    94   42   91 1    
    95   42   92 1    
    96   43   93 1    
    97   44   94 1    
    98   44   95 1    
    99   44   96 1    
   100   45   97 1    
   101   45   98 1    
   102   45   99 1    
   103   46  100 1    
   104   47  101 1    
   105   48  102 1    
   106   48  103 1    
   107   51  104 1    
   108   52  105 1    
   109   53  106 1    
   110   54  107 1    
   111   58  108 1    
   112   58  109 1    
@<TRIPOS>SUBSTRUCTURE
     1 PHENYL      1 PERM              0 ****  ****    6 ROOT 
     2 PHENYL     23 PERM              0 ****  ****    1  
     3 PHENYL     34 PERM              0 ****  ****    1  
     4 ISOPROPYL    40 PERM              0 ****  ****    1  
     5 ISOPROPYL    43 PERM              0 ****  ****    1  
     6 OH         46 PERM              0 ****  ****    1  
     7 CYCLOHEXYL    48 PERM              0 ****  ****    1  
@<TRIPOS>NORMAL
@<TRIPOS>FF_PBC
FORCE_FIELD_SETUP_FEATURE Force Field Setup information
v1.0  0 0.000000 0.000000 0.000000 0.000000 0.000000 0.000000 NONE 0 0 0 0 1 0 0 0 0 0 0 0 0
