#	Name:			Sc11
#	Creating user name:	nsalim
#	Creation time:		Wed Feb  9 13:33:34 2005

#	Modifying user name:	nsalim
#	Modification time:	Wed Feb  9 13:33:48 2005

@<TRIPOS>MOLECULE
Sc11
  111   114     7     1     0
SMALL
GASTEIGER


@<TRIPOS>ATOM
      1 C1          7.668239   14.105198   14.931721 C.ar      1 PHENYL     -0.021282 
      2 C           7.236338   14.214838   16.259051 C.ar      1 PHENYL     -0.056372 
      3 C           7.496683   13.188852   17.172671 C.ar      1 PHENYL     -0.061429 
      4 C           8.188803   12.045399   16.764044 C.ar      1 PHENYL     -0.061740 
      5 C           8.619147   11.929366   15.439510 C.ar      1 PHENYL     -0.061429 
      6 C           8.357451   12.956134   14.527685 C.ar      1 PHENYL     -0.056372 
      7 C7          7.400663   15.218664   13.911482 C.3       1 PHENYL      0.083653 
      8 O8          8.619196   15.456921   13.178808 O.3       1 PHENYL     -0.295140 
      9 C9          8.503099   16.372803   12.207408 C.2       1 PHENYL      0.353139 
     10 N10         9.660572   16.557636   11.539056 N.am      1 PHENYL     -0.279805 
     11 C11         9.750245   17.512362   10.432209 C.3       1 PHENYL      0.103775 
     12 C12        10.691613   16.977882    9.372978 C.2       1 PHENYL      0.233986 
     13 N13        10.686816   17.538874    8.139807 N.am      1 PHENYL     -0.308078 
     14 C14        11.603244   17.071713    7.094230 C.3       1 PHENYL      0.054959 
     15 C15        11.407185   15.546737    6.810799 C.3       1 PHENYL      0.097537 
     16 C16        11.834827   15.095296    5.382014 C.3       1 PHENYL      0.112915 
     17 C17        10.975757   15.719612    4.300181 C.2       1 PHENYL      0.233264 
     18 N18        11.539204   16.035281    3.110338 N.am      1 PHENYL     -0.302393 
     19 C19        10.721065   16.483131    1.978623 C.3       1 PHENYL      0.101694 
     20 C20        11.335460   15.958934    0.695893 C.2       1 PHENYL      0.233871 
     21 N21        10.625777   15.999469   -0.455139 N.am      1 PHENYL     -0.309666 
     22 C22        11.217932   15.501725   -1.694663 C.3       1 PHENYL      0.036886 
     23 C          10.544580   16.163328   -2.904784 C.ar      2 PHENYL     -0.030323 
     24 C           9.909947   15.404040   -3.894695 C.ar      2 PHENYL     -0.057077 
     25 C           9.306248   16.035021   -4.986674 C.ar      2 PHENYL     -0.061452 
     26 C           9.333466   17.428247   -5.093828 C.ar      2 PHENYL     -0.061740 
     27 C           9.964733   18.190339   -4.106785 C.ar      2 PHENYL     -0.061452 
     28 C          10.567601   17.557966   -3.015771 C.ar      2 PHENYL     -0.057077 
     29 O29         7.461233   16.962239   11.966188 O.2       1 PHENYL     -0.241337 
     30 O30        11.430783   16.058047    9.684094 O.2       1 PHENYL     -0.273760 
     31 O31         9.790082   15.900092    4.528357 O.2       1 PHENYL     -0.273988 
     32 O32        12.470202   15.510615    0.741804 O.2       1 PHENYL     -0.273762 
     33 C33        13.046604   17.485584    7.506397 C.3       1 PHENYL     -0.006715 
     34 C          14.078705   17.232499    6.399528 C.ar      3 PHENYL     -0.045529 
     35 C          15.003681   16.186667    6.508556 C.ar      3 PHENYL     -0.058512 
     36 C          15.905939   15.931356    5.471825 C.ar      3 PHENYL     -0.061501 
     37 C          15.903318   16.734395    4.328236 C.ar      3 PHENYL     -0.061742 
     38 C          15.008983   17.803479    4.231580 C.ar      3 PHENYL     -0.061501 
     39 C          14.098804   18.050059    5.263696 C.ar      3 PHENYL     -0.058512 
     40 C1         10.240521   18.907397   10.925810 C.3       4 ISOPROPYL   -0.019657 
     41 C2         11.668515   18.832495   11.535292 C.3       4 ISOPROPYL   -0.060524 
     42 C3          9.254093   19.522234   11.956175 C.3       4 ISOPROPYL   -0.060524 
     43 C1         10.582798   18.033754    1.909449 C.3       5 ISOPROPYL   -0.019730 
     44 C2         11.970641   18.720137    1.802053 C.3       5 ISOPROPYL   -0.060525 
     45 C3          9.801261   18.597034    3.127312 C.3       5 ISOPROPYL   -0.060525 
     46 O1         10.036620   15.163923    7.038156 O.3       6 OH         -0.387906 
     47 N47        11.733734   13.617816    5.302131 N.3       1 PHENYL     -0.299550 
     48 C48        12.264369   12.999318    4.065260 C.3       1 PHENYL      0.021999 
     49 C          12.238256   11.465071    4.108499 C.ar      7 PHENYL     -0.033401 
     50 C          12.337410   10.743105    2.913055 C.ar      7 PHENYL     -0.054912 
     51 C          12.287621    9.346265    2.922091 C.ar      7 PHENYL     -0.031394 
     52 C          12.122306    8.661380    4.128467 C.ar      7 PHENYL      0.075831 
     53 C          12.047775    9.374924    5.326566 C.ar      7 PHENYL     -0.031394 
     54 C          12.119541   10.771467    5.318873 C.ar      7 PHENYL     -0.054912 
     55 O55        12.035558    7.269192    4.141544 O.3       7 PHENYL     -0.347912 
     56 C56        10.774408    6.752503    3.686317 C.3       7 PHENYL      0.043026 
     57 H1          6.695673   15.096053   16.589588 H         1 PHENYL      0.062101 
     58 H2          7.160834   13.279884   18.201365 H         1 PHENYL      0.061767 
     59 H3          8.391612   11.249054   17.473664 H         1 PHENYL      0.061758 
     60 H4          9.156675   11.042051   15.118631 H         1 PHENYL      0.061767 
     61 H5          8.692466   12.858416   13.499548 H         1 PHENYL      0.062101 
     62 H6          7.075022   16.141933   14.418179 H         1 PHENYL      0.061655 
     63 H7          6.595666   14.867229   13.245458 H         1 PHENYL      0.061655 
     64 H8         10.482104   16.040759   11.789737 H         1 PHENYL      0.151734 
     65 H9          8.767515   17.621357    9.942956 H         1 PHENYL      0.059775 
     66 H10        10.058396   18.289104    7.922732 H         1 PHENYL      0.149127 
     67 H11        11.360317   17.607998    6.162732 H         1 PHENYL      0.052746 
     68 H12        12.005691   14.968404    7.531982 H         1 PHENYL      0.063235 
     69 H13        12.885741   15.356588    5.219302 H         1 PHENYL      0.058313 
     70 H14        12.523922   15.929690    2.950886 H         1 PHENYL      0.149509 
     71 H15         9.717055   16.030948    2.034940 H         1 PHENYL      0.059702 
     72 H16         9.679755   16.328720   -0.478183 H         1 PHENYL      0.149075 
     73 H17        11.118082   14.405443   -1.725661 H         1 PHENYL      0.051152 
     74 H18        12.290195   15.750000   -1.754959 H         1 PHENYL      0.051152 
     75 H19         9.881356   14.321558   -3.822702 H         2 PHENYL      0.062079 
     76 H20         8.815647   15.442072   -5.752644 H         2 PHENYL      0.061767 
     77 H21         8.865249   17.917676   -5.942319 H         2 PHENYL      0.061758 
     78 H22         9.986861   19.272787   -4.187634 H         2 PHENYL      0.061767 
     79 H23        11.056163   18.153169   -2.250312 H         2 PHENYL      0.062079 
     80 H24        13.350156   16.965766    8.426436 H         1 PHENYL      0.033193 
     81 H25        13.051214   18.564285    7.730690 H         1 PHENYL      0.033193 
     82 H26        15.024018   15.561076    7.395322 H         3 PHENYL      0.062030 
     83 H27        16.609136   15.108121    5.554307 H         3 PHENYL      0.061766 
     84 H28        16.596199   16.529705    3.517702 H         3 PHENYL      0.061758 
     85 H29        15.024874   18.442267    3.353860 H         3 PHENYL      0.061766 
     86 H30        13.406563   18.881768    5.179814 H         3 PHENYL      0.062030 
     87 H31        10.279032   19.589881   10.058486 H         4 ISOPROPYL    0.031803 
     88 H32        11.681228   18.176587   12.418807 H         4 ISOPROPYL    0.023302 
     89 H33        12.002041   19.835131   11.845352 H         4 ISOPROPYL    0.023302 
     90 H34        12.391566   18.446557   10.800359 H         4 ISOPROPYL    0.023302 
     91 H35         8.238655   19.574440   11.533621 H         4 ISOPROPYL    0.023302 
     92 H36         9.568165   20.543365   12.223803 H         4 ISOPROPYL    0.023302 
     93 H37         9.225146   18.919997   12.876618 H         4 ISOPROPYL    0.023302 
     94 H38        10.005543   18.294364    1.004903 H         5 ISOPROPYL    0.031802 
     95 H39        11.853005   19.811557    1.715678 H         5 ISOPROPYL    0.023302 
     96 H40        12.520819   18.362346    0.918369 H         5 ISOPROPYL    0.023302 
     97 H41        12.566720   18.505309    2.699375 H         5 ISOPROPYL    0.023302 
     98 H42         9.631274   19.678433    3.006975 H         5 ISOPROPYL    0.023302 
     99 H43        10.367653   18.441802    4.055656 H         5 ISOPROPYL    0.023302 
    100 H44         8.821799   18.103035    3.221306 H         5 ISOPROPYL    0.023302 
    101 H45         9.436147   15.609477    6.446701 H         6 OH          0.209942 
    102 H46        10.706691   13.310255    5.469767 H         1 PHENYL      0.123028 
    103 H47        13.315029   13.295623    3.920134 H         1 PHENYL      0.047363 
    104 H48        11.679290   13.337400    3.194383 H         1 PHENYL      0.047363 
    105 H49        12.456245   11.266696    1.969413 H         7 PHENYL      0.062149 
    106 H50        12.378684    8.790279    1.995095 H         7 PHENYL      0.064336 
    107 H51        11.933864    8.836679    6.261757 H         7 PHENYL      0.064336 
    108 H52        12.084240   11.309121    6.260669 H         7 PHENYL      0.062149 
    109 H53         9.953587    7.122547    4.320327 H         7 PHENYL      0.052869 
    110 H54        10.807120    5.655266    3.755490 H         7 PHENYL      0.052869 
    111 H55        10.580542    7.032614    2.639489 H         7 PHENYL      0.052869 
@<TRIPOS>BOND
     1    1    2 ar   
     2    1    6 ar   
     3    6    5 ar   
     4    5    4 ar   
     5    4    3 ar   
     6    3    2 ar   
     7    1    7 1    
     8    7    8 1    
     9    8    9 1    
    10    9   10 am   
    11   10   11 1    
    12   11   12 1    
    13   12   13 am   
    14   13   14 1    
    15   14   15 1    
    16   15   16 1    
    17   16   17 1    
    18   17   18 am   
    19   18   19 1    
    20   19   20 1    
    21   20   21 am   
    22   21   22 1    
    23   23   24 ar   
    24   23   28 ar   
    25   28   27 ar   
    26   27   26 ar   
    27   26   25 ar   
    28   25   24 ar   
    29   22   23 1    
    30    9   29 2    
    31   12   30 2    
    32   17   31 2    
    33   20   32 2    
    34   14   33 1    
    35   34   35 ar   
    36   34   39 ar   
    37   39   38 ar   
    38   38   37 ar   
    39   37   36 ar   
    40   36   35 ar   
    41   33   34 1    
    42   40   41 1    
    43   40   42 1    
    44   11   40 1    
    45   43   44 1    
    46   43   45 1    
    47   19   43 1    
    48   16   47 1    
    49   15   46 1    
    50   47   48 1    
    51   49   50 ar   
    52   49   54 ar   
    53   54   53 ar   
    54   53   52 ar   
    55   52   51 ar   
    56   51   50 ar   
    57   48   49 1    
    58   52   55 1    
    59   55   56 1    
    60    2   57 1    
    61    3   58 1    
    62    4   59 1    
    63    5   60 1    
    64    6   61 1    
    65    7   62 1    
    66    7   63 1    
    67   10   64 1    
    68   11   65 1    
    69   13   66 1    
    70   14   67 1    
    71   15   68 1    
    72   16   69 1    
    73   18   70 1    
    74   19   71 1    
    75   21   72 1    
    76   22   73 1    
    77   22   74 1    
    78   24   75 1    
    79   25   76 1    
    80   26   77 1    
    81   27   78 1    
    82   28   79 1    
    83   33   80 1    
    84   33   81 1    
    85   35   82 1    
    86   36   83 1    
    87   37   84 1    
    88   38   85 1    
    89   39   86 1    
    90   40   87 1    
    91   41   88 1    
    92   41   89 1    
    93   41   90 1    
    94   42   91 1    
    95   42   92 1    
    96   42   93 1    
    97   43   94 1    
    98   44   95 1    
    99   44   96 1    
   100   44   97 1    
   101   45   98 1    
   102   45   99 1    
   103   45  100 1    
   104   46  101 1    
   105   47  102 1    
   106   48  103 1    
   107   48  104 1    
   108   50  105 1    
   109   51  106 1    
   110   53  107 1    
   111   54  108 1    
   112   56  109 1    
   113   56  110 1    
   114   56  111 1    
@<TRIPOS>SUBSTRUCTURE
     1 PHENYL      1 PERM              0 ****  ****    6 ROOT 
     2 PHENYL     23 PERM              0 ****  ****    1  
     3 PHENYL     34 PERM              0 ****  ****    1  
     4 ISOPROPYL    40 PERM              0 ****  ****    1  
     5 ISOPROPYL    43 PERM              0 ****  ****    1  
     6 OH         46 PERM              0 ****  ****    1  
     7 PHENYL     49 PERM              0 ****  ****    1  
@<TRIPOS>NORMAL
@<TRIPOS>FF_PBC
FORCE_FIELD_SETUP_FEATURE Force Field Setup information
v1.0  0 0.000000 0.000000 0.000000 0.000000 0.000000 0.000000 NONE 0 0 0 0 1 0 0 0 0 0 0 0 0
