#	Name:			Sc13
#	Creating user name:	nsalim
#	Creation time:		Wed Feb  9 13:34:54 2005

#	Modifying user name:	nsalim
#	Modification time:	Wed Feb  9 13:35:06 2005

@<TRIPOS>MOLECULE
Sc13
  107   110     7     1     0
SMALL
GASTEIGER


@<TRIPOS>ATOM
      1 C1          7.534213   14.293523   14.988503 C.ar      1 PHENYL     -0.021282 
      2 C           7.113401   14.493697   16.308921 C.ar      1 PHENYL     -0.056372 
      3 C           7.353963   13.518610   17.281670 C.ar      1 PHENYL     -0.061429 
      4 C           8.014476   12.335392   16.939466 C.ar      1 PHENYL     -0.061740 
      5 C           8.433457   12.128922   15.622299 C.ar      1 PHENYL     -0.061429 
      6 C           8.192417   13.105446   14.651477 C.ar      1 PHENYL     -0.056372 
      7 C7          7.288518   15.349844   13.903882 C.3       1 PHENYL      0.083653 
      8 O8          8.518962   15.541916   13.177319 O.3       1 PHENYL     -0.295140 
      9 C9          8.426831   16.423818   12.172336 C.2       1 PHENYL      0.353139 
     10 N10         9.596843   16.584020   11.519404 N.am      1 PHENYL     -0.279805 
     11 C11         9.714639   17.521112   10.400035 C.3       1 PHENYL      0.103775 
     12 C12        10.678327   16.974950    9.366907 C.2       1 PHENYL      0.233986 
     13 N13        10.711021   17.538392    8.135222 N.am      1 PHENYL     -0.308078 
     14 C14        11.644748   17.060693    7.110273 C.3       1 PHENYL      0.054959 
     15 C15        11.438496   15.538910    6.818781 C.3       1 PHENYL      0.097537 
     16 C16        11.844163   15.093696    5.380368 C.3       1 PHENYL      0.112915 
     17 C17        10.985152   15.750177    4.317553 C.2       1 PHENYL      0.233264 
     18 N18        11.516206   15.984757    3.094292 N.am      1 PHENYL     -0.302393 
     19 C19        10.691145   16.493840    1.994410 C.3       1 PHENYL      0.101694 
     20 C20        11.156296   15.867612    0.695163 C.2       1 PHENYL      0.233871 
     21 N21        10.380953   15.968557   -0.409082 N.am      1 PHENYL     -0.309666 
     22 C22        10.826148   15.386352   -1.673154 C.3       1 PHENYL      0.036886 
     23 C          10.181757   16.131284   -2.850334 C.ar      2 PHENYL     -0.030323 
     24 C           9.450244   15.453376   -3.832517 C.ar      2 PHENYL     -0.057077 
     25 C           8.868678   16.159494   -4.889854 C.ar      2 PHENYL     -0.061452 
     26 C           9.015950   17.547113   -4.970853 C.ar      2 PHENYL     -0.061740 
     27 C           9.748155   18.227630   -3.994040 C.ar      2 PHENYL     -0.061452 
     28 C          10.330394   17.519739   -2.938622 C.ar      2 PHENYL     -0.057077 
     29 O29         7.392889   17.010396   11.892882 O.2       1 PHENYL     -0.241337 
     30 O30        11.398988   16.046084    9.694375 O.2       1 PHENYL     -0.273760 
     31 O31         9.830342   16.036230    4.591787 O.2       1 PHENYL     -0.273988 
     32 O32        12.230607   15.287527    0.684569 O.2       1 PHENYL     -0.273762 
     33 C33        13.085893   17.455039    7.545970 C.3       1 PHENYL     -0.006715 
     34 C          14.132381   17.132385    6.471502 C.ar      3 PHENYL     -0.045529 
     35 C          15.010790   16.053434    6.631394 C.ar      3 PHENYL     -0.058512 
     36 C          15.934840   15.740994    5.630224 C.ar      3 PHENYL     -0.061501 
     37 C          15.998822   16.517418    4.470234 C.ar      3 PHENYL     -0.061742 
     38 C          15.145685   17.613695    4.319353 C.ar      3 PHENYL     -0.061501 
     39 C          14.212384   17.916869    5.315047 C.ar      3 PHENYL     -0.058512 
     40 C1         10.195131   18.921714   10.888392 C.3       4 ISOPROPYL   -0.019657 
     41 C2         11.606389   18.850862   11.536274 C.3       4 ISOPROPYL   -0.060524 
     42 C3          9.184037   19.555075   11.883277 C.3       4 ISOPROPYL   -0.060524 
     43 C1         10.743000   18.047446    1.883540 C.3       5 ISOPROPYL   -0.019730 
     44 C2         12.195248   18.552641    1.666746 C.3       5 ISOPROPYL   -0.060525 
     45 C3         10.121728   18.730529    3.131665 C.3       5 ISOPROPYL   -0.060525 
     46 O1         10.067649   15.161904    7.056003 O.3       6 OH         -0.387906 
     47 N47        11.717110   13.618805    5.296139 N.3       1 PHENYL     -0.299550 
     48 C48        12.152748   12.986875    4.030156 C.3       1 PHENYL      0.021998 
     49 C          12.111465   11.457514    4.147052 C.ar      7 PHENYL     -0.033493 
     50 C          11.776772   10.667186    3.041130 C.ar      7 PHENYL     -0.056307 
     51 C          11.717246    9.275518    3.159540 C.ar      7 PHENYL     -0.047461 
     52 C          11.997929    8.664245    4.384463 C.ar      7 PHENYL      0.017898 
     53 C          12.346257    9.447992    5.487818 C.ar      7 PHENYL     -0.047461 
     54 C          12.409046   10.839302    5.366731 C.ar      7 PHENYL     -0.056307 
     55 Br55       11.909039    6.820476    4.544596 Br        7 PHENYL     -0.050291 
     56 H1          6.596928   15.406368   16.588549 H         1 PHENYL      0.062101 
     57 H2          7.027317   13.680152   18.304602 H         1 PHENYL      0.061767 
     58 H3          8.201716   11.578360   17.695034 H         1 PHENYL      0.061758 
     59 H4          8.946095   11.210338   15.353131 H         1 PHENYL      0.061767 
     60 H5          8.519269   12.938537   13.629722 H         1 PHENYL      0.062101 
     61 H6          6.960604   16.300542   14.355622 H         1 PHENYL      0.061655 
     62 H7          6.491380   14.968854   13.244797 H         1 PHENYL      0.061655 
     63 H8         10.410303   16.067664   11.796378 H         1 PHENYL      0.151734 
     64 H9          8.743794   17.624460    9.886920 H         1 PHENYL      0.059775 
     65 H10        10.095637   18.294931    7.903013 H         1 PHENYL      0.149127 
     66 H11        11.428677   17.602179    6.175955 H         1 PHENYL      0.052746 
     67 H12        12.039630   14.953306    7.532184 H         1 PHENYL      0.063235 
     68 H13        12.897491   15.336995    5.201580 H         1 PHENYL      0.058313 
     69 H14        12.478287   15.785968    2.892211 H         1 PHENYL      0.149509 
     70 H15         9.644276   16.172242    2.122325 H         1 PHENYL      0.059702 
     71 H16         9.479376   16.404930   -0.379118 H         1 PHENYL      0.149075 
     72 H17        10.571353   14.315106   -1.683598 H         1 PHENYL      0.051152 
     73 H18        11.916738   15.482373   -1.799836 H         1 PHENYL      0.051152 
     74 H19         9.328946   14.376129   -3.781213 H         2 PHENYL      0.062079 
     75 H20         8.301700   15.629685   -5.649379 H         2 PHENYL      0.061767 
     76 H21         8.562726   18.095239   -5.791152 H         2 PHENYL      0.061758 
     77 H22         9.864600   19.305378   -4.055051 H         2 PHENYL      0.061767 
     78 H23        10.900832   18.051857   -2.183361 H         2 PHENYL      0.062079 
     79 H24        13.354034   16.957467    8.489032 H         1 PHENYL      0.033193 
     80 H25        13.113007   18.539867    7.736420 H         1 PHENYL      0.033193 
     81 H26        14.978122   15.446712    7.530781 H         3 PHENYL      0.062030 
     82 H27        16.603484   14.894338    5.753429 H         3 PHENYL      0.061766 
     83 H28        16.711154   16.270613    3.688778 H         3 PHENYL      0.061758 
     84 H29        15.211479   18.229818    3.427959 H         3 PHENYL      0.061766 
     85 H30        13.548895   18.766042    5.185426 H         3 PHENYL      0.062030 
     86 H31        10.259655   19.593742   10.014517 H         4 ISOPROPYL    0.031803 
     87 H32        11.592690   18.208895   12.429764 H         4 ISOPROPYL    0.023302 
     88 H33        11.936040   19.856816   11.839529 H         4 ISOPROPYL    0.023302 
     89 H34        12.346811   18.450472   10.826902 H         4 ISOPROPYL    0.023302 
     90 H35         8.179617   19.602279   11.434610 H         4 ISOPROPYL    0.023302 
     91 H36         9.493395   20.580000   12.141560 H         4 ISOPROPYL    0.023302 
     92 H37         9.130425   18.969295   12.813054 H         4 ISOPROPYL    0.023302 
     93 H38        10.142598   18.357759    1.010151 H         5 ISOPROPYL    0.031802 
     94 H39        12.206170   19.647834    1.553344 H         5 ISOPROPYL    0.023302 
     95 H40        12.636019   18.109506    0.760704 H         5 ISOPROPYL    0.023302 
     96 H41        12.822323   18.287621    2.529431 H         5 ISOPROPYL    0.023302 
     97 H42        10.078216   19.821759    2.990201 H         5 ISOPROPYL    0.023302 
     98 H43        10.728923   18.525306    4.023437 H         5 ISOPROPYL    0.023302 
     99 H44         9.098152   18.364346    3.306174 H         5 ISOPROPYL    0.023302 
    100 H45         9.464577   15.620991    6.477397 H         6 OH          0.209942 
    101 H46        10.704036   13.317198    5.541133 H         1 PHENYL      0.123028 
    102 H47        13.192910   13.268231    3.803999 H         1 PHENYL      0.047363 
    103 H48        11.508055   13.315957    3.199091 H         1 PHENYL      0.047363 
    104 H49        11.561931   11.129798    2.082998 H         7 PHENYL      0.062103 
    105 H50        11.452808    8.668558    2.299458 H         7 PHENYL      0.062864 
    106 H51        12.568234    8.975669    6.439446 H         7 PHENYL      0.062864 
    107 H52        12.691365   11.438665    6.226556 H         7 PHENYL      0.062103 
@<TRIPOS>BOND
     1    1    2 ar   
     2    1    6 ar   
     3    6    5 ar   
     4    5    4 ar   
     5    4    3 ar   
     6    3    2 ar   
     7    1    7 1    
     8    7    8 1    
     9    8    9 1    
    10    9   10 am   
    11   10   11 1    
    12   11   12 1    
    13   12   13 am   
    14   13   14 1    
    15   14   15 1    
    16   15   16 1    
    17   16   17 1    
    18   17   18 am   
    19   18   19 1    
    20   19   20 1    
    21   20   21 am   
    22   21   22 1    
    23   23   24 ar   
    24   23   28 ar   
    25   28   27 ar   
    26   27   26 ar   
    27   26   25 ar   
    28   25   24 ar   
    29   22   23 1    
    30    9   29 2    
    31   12   30 2    
    32   17   31 2    
    33   20   32 2    
    34   14   33 1    
    35   34   35 ar   
    36   34   39 ar   
    37   39   38 ar   
    38   38   37 ar   
    39   37   36 ar   
    40   36   35 ar   
    41   33   34 1    
    42   40   41 1    
    43   40   42 1    
    44   11   40 1    
    45   43   44 1    
    46   43   45 1    
    47   19   43 1    
    48   16   47 1    
    49   15   46 1    
    50   47   48 1    
    51   49   50 ar   
    52   49   54 ar   
    53   54   53 ar   
    54   53   52 ar   
    55   52   51 ar   
    56   51   50 ar   
    57   48   49 1    
    58   52   55 1    
    59    2   56 1    
    60    3   57 1    
    61    4   58 1    
    62    5   59 1    
    63    6   60 1    
    64    7   61 1    
    65    7   62 1    
    66   10   63 1    
    67   11   64 1    
    68   13   65 1    
    69   14   66 1    
    70   15   67 1    
    71   16   68 1    
    72   18   69 1    
    73   19   70 1    
    74   21   71 1    
    75   22   72 1    
    76   22   73 1    
    77   24   74 1    
    78   25   75 1    
    79   26   76 1    
    80   27   77 1    
    81   28   78 1    
    82   33   79 1    
    83   33   80 1    
    84   35   81 1    
    85   36   82 1    
    86   37   83 1    
    87   38   84 1    
    88   39   85 1    
    89   40   86 1    
    90   41   87 1    
    91   41   88 1    
    92   41   89 1    
    93   42   90 1    
    94   42   91 1    
    95   42   92 1    
    96   43   93 1    
    97   44   94 1    
    98   44   95 1    
    99   44   96 1    
   100   45   97 1    
   101   45   98 1    
   102   45   99 1    
   103   46  100 1    
   104   47  101 1    
   105   48  102 1    
   106   48  103 1    
   107   50  104 1    
   108   51  105 1    
   109   53  106 1    
   110   54  107 1    
@<TRIPOS>SUBSTRUCTURE
     1 PHENYL      1 PERM              0 ****  ****    6 ROOT 
     2 PHENYL     23 PERM              0 ****  ****    1  
     3 PHENYL     34 PERM              0 ****  ****    1  
     4 ISOPROPYL    40 PERM              0 ****  ****    1  
     5 ISOPROPYL    43 PERM              0 ****  ****    1  
     6 OH         46 PERM              0 ****  ****    1  
     7 PHENYL     49 PERM              0 ****  ****    1  
@<TRIPOS>NORMAL
@<TRIPOS>FF_PBC
FORCE_FIELD_SETUP_FEATURE Force Field Setup information
v1.0  0 0.000000 0.000000 0.000000 0.000000 0.000000 0.000000 NONE 0 0 0 0 1 0 0 0 0 0 0 0 0
