#	Name:			Sc14
#	Creating user name:	nsalim
#	Creation time:		Wed Feb  9 13:35:37 2005

#	Modifying user name:	nsalim
#	Modification time:	Wed Feb  9 13:35:49 2005

@<TRIPOS>MOLECULE
Sc14
  106   108     8     1     0
SMALL
GASTEIGER


@<TRIPOS>ATOM
      1 C1          5.458360   15.929766   13.201978 C.3       1 PHENYL     -0.035698 
      2 C2          6.806733   15.615507   15.313862 C.3       1 PHENYL     -0.035698 
      3 C3          6.315137   17.961140   14.524881 C.3       1 PHENYL     -0.035698 
      4 H1          4.543322   15.850706   13.808535 H         1 PHENYL      0.025728 
      5 H2          5.730106   14.925970   12.842092 H         1 PHENYL      0.025728 
      6 H3          5.227723   16.558396   12.331153 H         1 PHENYL      0.025728 
      7 C7          6.622300   16.509775   14.055578 C.3       1 PHENYL      0.072088 
      8 O8          7.897098   16.403015   13.381656 O.3       1 PHENYL     -0.294053 
      9 C9          8.055424   17.102931   12.248931 C.2       1 PHENYL      0.353323 
     10 N10         9.293885   16.928271   11.740371 N.am      1 PHENYL     -0.279799 
     11 C11         9.725824   17.638047   10.533462 C.3       1 PHENYL      0.103775 
     12 C12        10.624430   16.739251    9.704940 C.2       1 PHENYL      0.233986 
     13 N13        11.023568   17.163181    8.478569 N.am      1 PHENYL     -0.308078 
     14 C14        11.907372   16.396565    7.583821 C.3       1 PHENYL      0.054959 
     15 C15        11.007330   15.925078    6.400795 C.3       1 PHENYL      0.097537 
     16 C16        11.767932   15.225573    5.236368 C.3       1 PHENYL      0.112915 
     17 C17        10.969655   15.367611    3.956458 C.2       1 PHENYL      0.233264 
     18 N18        11.284973   16.337584    3.065673 N.am      1 PHENYL     -0.302393 
     19 C19        10.629707   16.359700    1.755537 C.3       1 PHENYL      0.101694 
     20 C20        11.271147   15.301929    0.881352 C.2       1 PHENYL      0.233871 
     21 N21        10.651780   14.921408   -0.260554 N.am      1 PHENYL     -0.309666 
     22 C22        11.248160   13.901286   -1.120869 C.3       1 PHENYL      0.036886 
     23 C          10.931039   14.207484   -2.590649 C.ar      2 PHENYL     -0.030323 
     24 C          10.346104   13.249478   -3.427055 C.ar      2 PHENYL     -0.057077 
     25 C          10.072088   13.555223   -4.763573 C.ar      2 PHENYL     -0.061452 
     26 C          10.380341   14.820835   -5.270362 C.ar      2 PHENYL     -0.061740 
     27 C          10.962191   15.781120   -4.438120 C.ar      2 PHENYL     -0.061452 
     28 C          11.236099   15.473478   -3.102352 C.ar      2 PHENYL     -0.057077 
     29 O29         7.205818   17.813115   11.737736 O.2       1 PHENYL     -0.241329 
     30 O30        10.941165   15.671586   10.201368 O.2       1 PHENYL     -0.273760 
     31 O31        10.064187   14.573366    3.757765 O.2       1 PHENYL     -0.273988 
     32 O32        12.338786   14.822334    1.229781 O.2       1 PHENYL     -0.273762 
     33 C33        12.750188   15.265296    8.250750 C.3       1 PHENYL     -0.006715 
     34 C          13.957901   14.710397    7.466550 C.ar      3 PHENYL     -0.045529 
     35 C          14.162754   13.325511    7.401355 C.ar      3 PHENYL     -0.058512 
     36 C          15.239169   12.788877    6.689111 C.ar      3 PHENYL     -0.061501 
     37 C          16.104629   13.633025    5.991115 C.ar      3 PHENYL     -0.061742 
     38 C          15.925581   15.016014    6.066787 C.ar      3 PHENYL     -0.061501 
     39 C          14.885530   15.549335    6.834192 C.ar      3 PHENYL     -0.058512 
     40 C1         10.457165   18.960013   10.924133 C.3       4 ISOPROPYL   -0.019657 
     41 C2         11.770602   18.682685   11.707434 C.3       4 ISOPROPYL   -0.060524 
     42 C3          9.533531   19.898758   11.749019 C.3       4 ISOPROPYL   -0.060524 
     43 C1         10.662141   17.756101    1.058165 C.3       5 ISOPROPYL   -0.019730 
     44 C2         12.086734   18.176157    0.594351 C.3       5 ISOPROPYL   -0.060525 
     45 C3         10.040527   18.844943    1.976482 C.3       5 ISOPROPYL   -0.060525 
     46 O1         10.276662   17.065771    5.900602 O.3       6 OH         -0.387906 
     47 N47        12.012136   13.782093    5.490023 N.3       1 PHENYL     -0.299550 
     48 H4          7.635861   15.997046   15.929894 H         1 PHENYL      0.025728 
     49 C49        12.831739   13.130812    4.435562 C.3       8 <8>         0.021997 
     50 C          13.294012   11.693340    4.725760 C.ar      7 PHENYL     -0.033558 
     51 C          14.334075   11.162311    3.952533 C.ar      7 PHENYL     -0.057350 
     52 C          14.817987    9.873098    4.191684 C.ar      7 PHENYL     -0.061461 
     53 C          14.252634    9.093026    5.203149 C.ar      7 PHENYL     -0.061741 
     54 C          13.202301    9.606933    5.967958 C.ar      7 PHENYL     -0.061461 
     55 C          12.724510   10.899108    5.729353 C.ar      7 PHENYL     -0.057350 
     56 H5          7.048757   14.584241   15.013883 H         1 PHENYL      0.025728 
     57 H6          5.894834   15.594779   15.930377 H         1 PHENYL      0.025728 
     58 H7          6.076524   18.630080   13.686987 H         1 PHENYL      0.025728 
     59 H8          7.187354   18.370128   15.057117 H         1 PHENYL      0.025728 
     60 H9          5.451961   17.967149   15.207986 H         1 PHENYL      0.025728 
     61 H10         9.950431   16.319743   12.191935 H         1 PHENYL      0.151734 
     62 H11         8.859951   17.873384    9.892302 H         1 PHENYL      0.059775 
     63 H12        10.668665   18.027864    8.116295 H         1 PHENYL      0.149127 
     64 H13        12.615840   17.133346    7.178052 H         1 PHENYL      0.052746 
     65 H14        10.244251   15.236853    6.797292 H         1 PHENYL      0.063235 
     66 H15        12.731503   15.740238    5.109621 H         1 PHENYL      0.058313 
     67 H16        12.035922   16.971702    3.238407 H         1 PHENYL      0.149509 
     68 H17         9.567495   16.088697    1.879776 H         1 PHENYL      0.059702 
     69 H18         9.759360   15.293684   -0.522026 H         1 PHENYL      0.149075 
     70 H19        10.864064   12.913863   -0.820697 H         1 PHENYL      0.051152 
     71 H20        12.346952   13.879918   -1.041252 H         1 PHENYL      0.051152 
     72 H21        10.101924   12.263230   -3.045536 H         2 PHENYL      0.062079 
     73 H22         9.619350   12.808663   -5.409187 H         2 PHENYL      0.061767 
     74 H23        10.168318   15.057525   -6.308653 H         2 PHENYL      0.061758 
     75 H24        11.201572   16.765459   -4.829005 H         2 PHENYL      0.061767 
     76 H25        11.688896   16.222061   -2.459594 H         2 PHENYL      0.062079 
     77 H26        12.068411   14.438178    8.499155 H         1 PHENYL      0.033193 
     78 H27        13.188967   15.657667    9.181297 H         1 PHENYL      0.033193 
     79 H28        13.487427   12.647294    7.911457 H         3 PHENYL      0.062030 
     80 H29        15.402046   11.715244    6.675991 H         3 PHENYL      0.061766 
     81 H30        16.911633   13.216119    5.396358 H         3 PHENYL      0.061758 
     82 H31        16.599935   15.677487    5.531607 H         3 PHENYL      0.061766 
     83 H32        14.822734   16.625815    6.935573 H         3 PHENYL      0.062030 
     84 H33        10.727559   19.503227   10.002112 H         4 ISOPROPYL    0.031803 
     85 H34        12.454598   18.053450   11.117357 H         4 ISOPROPYL    0.023302 
     86 H35        11.558068   18.174481   12.659795 H         4 ISOPROPYL    0.023302 
     87 H36        12.286312   19.629919   11.930339 H         4 ISOPROPYL    0.023302 
     88 H37        10.032487   20.864001   11.928570 H         4 ISOPROPYL    0.023302 
     89 H38         9.290419   19.453766   12.725494 H         4 ISOPROPYL    0.023302 
     90 H39         8.596674   20.092760   11.204134 H         4 ISOPROPYL    0.023302 
     91 H40        10.037509   17.696048    0.148579 H         5 ISOPROPYL    0.031802 
     92 H41        12.517441   17.423506   -0.083650 H         5 ISOPROPYL    0.023302 
     93 H42        12.769617   18.309710    1.445167 H         5 ISOPROPYL    0.023302 
     94 H43        12.035732   19.131470    0.048627 H         5 ISOPROPYL    0.023302 
     95 H44         9.984308   19.807696    1.444702 H         5 ISOPROPYL    0.023302 
     96 H45        10.644545   18.987663    2.884674 H         5 ISOPROPYL    0.023302 
     97 H46         9.021032   18.557227    2.277397 H         5 ISOPROPYL    0.023302 
     98 H47        10.831197   17.739161    5.519705 H         6 OH          0.209942 
     99 H48        11.058063   13.275607    5.573281 H         1 PHENYL      0.123028 
    100 H49        13.743141   13.730950    4.285032 H         8 <8>         0.047363 
    101 H50        12.286468   13.096007    3.478171 H         8 <8>         0.047363 
    102 H51        14.775452   11.754219    3.156606 H         7 PHENYL      0.062070 
    103 H52        15.632379    9.478130    3.591799 H         7 PHENYL      0.061767 
    104 H53        14.627345    8.091824    5.393254 H         7 PHENYL      0.061758 
    105 H54        12.756563    8.999905    6.750147 H         7 PHENYL      0.061767 
    106 H55        11.909158   11.268691    6.338563 H         7 PHENYL      0.062070 
@<TRIPOS>BOND
     1    7    2 1    
     2    7    3 1    
     3    1    4 1    
     4    1    5 1    
     5    1    6 1    
     6    2   48 1    
     7    1    7 1    
     8    7    8 1    
     9    8    9 1    
    10    9   10 am   
    11   10   11 1    
    12   11   12 1    
    13   12   13 am   
    14   13   14 1    
    15   14   15 1    
    16   15   16 1    
    17   16   17 1    
    18   17   18 am   
    19   18   19 1    
    20   19   20 1    
    21   20   21 am   
    22   21   22 1    
    23   23   24 ar   
    24   23   28 ar   
    25   28   27 ar   
    26   27   26 ar   
    27   26   25 ar   
    28   25   24 ar   
    29   22   23 1    
    30    9   29 2    
    31   12   30 2    
    32   17   31 2    
    33   20   32 2    
    34   14   33 1    
    35   34   35 ar   
    36   34   39 ar   
    37   39   38 ar   
    38   38   37 ar   
    39   37   36 ar   
    40   36   35 ar   
    41   33   34 1    
    42   40   41 1    
    43   40   42 1    
    44   11   40 1    
    45   43   44 1    
    46   43   45 1    
    47   19   43 1    
    48   16   47 1    
    49   15   46 1    
    50   49   47 1    
    51    2   56 1    
    52   50   51 ar   
    53   50   55 ar   
    54   55   54 ar   
    55   54   53 ar   
    56   53   52 ar   
    57   52   51 ar   
    58   49   50 1    
    59    2   57 1    
    60    3   58 1    
    61    3   59 1    
    62    3   60 1    
    63   10   61 1    
    64   11   62 1    
    65   13   63 1    
    66   14   64 1    
    67   15   65 1    
    68   16   66 1    
    69   18   67 1    
    70   19   68 1    
    71   21   69 1    
    72   22   70 1    
    73   22   71 1    
    74   24   72 1    
    75   25   73 1    
    76   26   74 1    
    77   27   75 1    
    78   28   76 1    
    79   33   77 1    
    80   33   78 1    
    81   35   79 1    
    82   36   80 1    
    83   37   81 1    
    84   38   82 1    
    85   39   83 1    
    86   40   84 1    
    87   41   85 1    
    88   41   86 1    
    89   41   87 1    
    90   42   88 1    
    91   42   89 1    
    92   42   90 1    
    93   43   91 1    
    94   44   92 1    
    95   44   93 1    
    96   44   94 1    
    97   45   95 1    
    98   45   96 1    
    99   45   97 1    
   100   46   98 1    
   101   47   99 1    
   102   49  100 1    
   103   49  101 1    
   104   51  102 1    
   105   52  103 1    
   106   53  104 1    
   107   54  105 1    
   108   55  106 1    
@<TRIPOS>SUBSTRUCTURE
     1 PHENYL      1 PERM              0 ****  ****    6  
     2 PHENYL     23 PERM              0 ****  ****    1  
     3 PHENYL     34 PERM              0 ****  ****    1  
     4 ISOPROPYL    40 PERM              0 ****  ****    1  
     5 ISOPROPYL    43 PERM              0 ****  ****    1  
     6 OH         46 PERM              0 ****  ****    1  
     7 PHENYL     50 PERM              0 ****  ****    1  
     8 ****       49 PERM              0 ****  ****    2 ROOT 
@<TRIPOS>NORMAL
@<TRIPOS>FF_PBC
FORCE_FIELD_SETUP_FEATURE Force Field Setup information
v1.0  0 0.000000 0.000000 0.000000 0.000000 0.000000 0.000000 NONE 0 0 0 0 1 0 0 0 0 0 0 0 0
