#	Name:			Sc15
#	Creating user name:	nsalim
#	Creation time:		Wed Feb  9 13:36:47 2005

#	Modifying user name:	nsalim
#	Modification time:	Wed Feb  9 13:37:05 2005

@<TRIPOS>MOLECULE
Sc15
  110   112     8     1     0
SMALL
GASTEIGER


@<TRIPOS>ATOM
      1 C1          8.211797   16.162918   11.727755 C.2       8 <8>         0.213616 
      2 C2          7.822650   15.475629   13.015522 C.3       8 <8>         0.023969 
      3 C3          6.622211   14.503054   12.857432 C.3       8 <8>        -0.044754 
      4 C4          6.230163   13.868178   14.220042 C.3       8 <8>        -0.051477 
      5 C5          5.051980   12.868367   14.064021 C.3       8 <8>        -0.040637 
      6 C6          4.635684   12.261049   15.429630 C.3       8 <8>        -0.006905 
      7 N7          3.565640   11.259247   15.234368 N.3       8 <8>        -0.329979 
      8 O8          7.562552   15.963574   10.713977 O.2       8 <8>        -0.275802 
      9 H1          7.566507   16.257274   13.748155 H         8 <8>         0.035827 
     10 N10         9.281794   16.990247   11.757415 N.am      8 <8>        -0.303750 
     11 C11         9.732790   17.671220   10.538861 C.3       8 <8>         0.101644 
     12 C12        10.628394   16.751650    9.730676 C.2       8 <8>         0.233911 
     13 N13        10.985703   17.141594    8.479386 N.am      8 <8>        -0.308079 
     14 C14        11.882493   16.380802    7.592625 C.3       8 <8>         0.054959 
     15 C15        10.995311   15.897584    6.404023 C.3       8 <8>         0.097537 
     16 C16        11.771109   15.223247    5.234332 C.3       8 <8>         0.112915 
     17 C17        10.974591   15.365706    3.953201 C.2       8 <8>         0.233264 
     18 N18        11.280121   16.347472    3.071814 N.am      8 <8>        -0.302393 
     19 C19        10.628477   16.373065    1.759800 C.3       8 <8>         0.101694 
     20 C20        11.290871   15.337426    0.874802 C.2       8 <8>         0.233871 
     21 N21        10.682159   14.961050   -0.274301 N.am      8 <8>        -0.309666 
     22 C22        11.299509   13.962363   -1.144950 C.3       8 <8>         0.036886 
     23 C          10.978790   14.278501   -2.611874 C.ar      1 PHENYL     -0.030323 
     24 C          10.413562   13.318672   -3.459647 C.ar      1 PHENYL     -0.057077 
     25 C          10.135787   13.633466   -4.793277 C.ar      1 PHENYL     -0.061452 
     26 C          10.420484   14.910115   -5.285906 C.ar      1 PHENYL     -0.061740 
     27 C          10.982497   15.872299   -4.442332 C.ar      1 PHENYL     -0.061452 
     28 C          11.260194   15.555546   -3.109472 C.ar      1 PHENYL     -0.057077 
     29 H2          8.695834   14.918043   13.389230 H         8 <8>         0.035827 
     30 O30        10.986057   15.711039   10.256296 O.2       8 <8>        -0.273761 
     31 O31        10.080424   14.561152    3.744841 O.2       8 <8>        -0.273988 
     32 O32        12.365234   14.871631    1.221374 O.2       8 <8>        -0.273762 
     33 C33        12.737712   15.262754    8.265133 C.3       8 <8>        -0.006715 
     34 C          13.945606   14.714956    7.477001 C.ar      2 PHENYL     -0.045529 
     35 C          14.154305   13.331298    7.400278 C.ar      2 PHENYL     -0.058512 
     36 C          15.240127   12.805470    6.694245 C.ar      2 PHENYL     -0.061501 
     37 C          16.104972   13.658610    6.006071 C.ar      2 PHENYL     -0.061742 
     38 C          15.916984   15.040162    6.087276 C.ar      2 PHENYL     -0.061501 
     39 C          14.870398   15.562997    6.853002 C.ar      2 PHENYL     -0.058512 
     40 C1         10.444506   19.028615   10.846582 C.3       3 ISOPROPYL   -0.019731 
     41 C2         11.848871   18.848649   11.491354 C.3       3 ISOPROPYL   -0.060525 
     42 C3          9.546741   19.940502   11.729008 C.3       3 ISOPROPYL   -0.060525 
     43 C1         10.637907   17.777932    1.079282 C.3       4 ISOPROPYL   -0.019730 
     44 C2         12.055647   18.228280    0.623352 C.3       4 ISOPROPYL   -0.060525 
     45 C3          9.996011   18.845001    2.009206 C.3       4 ISOPROPYL   -0.060525 
     46 O1         10.245048   17.028021    5.909072 O.3       5 OH         -0.387906 
     47 N47        12.040121   13.781137    5.470364 N.3       8 <8>        -0.299550 
     48 H3          6.894242   13.708829   12.142559 H         8 <8>         0.026980 
     49 C49        12.867680   13.156781    4.405577 C.3       7 <7>         0.021997 
     50 C          13.360246   11.725582    4.676284 C.ar      6 PHENYL     -0.033558 
     51 C          14.423949   11.233177    3.909467 C.ar      6 PHENYL     -0.057350 
     52 C          14.935574    9.952086    4.133357 C.ar      6 PHENYL     -0.061461 
     53 C          14.374203    9.140659    5.122133 C.ar      6 PHENYL     -0.061741 
     54 C          13.300357    9.615306    5.879428 C.ar      6 PHENYL     -0.061461 
     55 C          12.795074   10.899844    5.656430 C.ar      6 PHENYL     -0.057350 
     56 H4          5.758320   15.054515   12.450685 H         8 <8>         0.026980 
     57 H5          5.938193   14.667053   14.921373 H         8 <8>         0.026579 
     58 H6          7.100829   13.339750   14.641802 H         8 <8>         0.026579 
     59 H7          5.347846   12.049121   13.388600 H         8 <8>         0.027742 
     60 H8          4.186848   13.385909   13.618868 H         8 <8>         0.027742 
     61 H9          4.296905   13.060566   16.111021 H         8 <8>         0.042179 
     62 H10         5.508855   11.764153   15.884780 H         8 <8>         0.042179 
     63 H11         2.682714   11.718633   14.809558 H         8 <8>         0.118213 
     64 H12         3.307716   10.786906   16.173894 H         8 <8>         0.118213 
     65 H13         9.814694   17.086594   12.597170 H         8 <8>         0.149458 
     66 H14         8.856243   17.905809    9.911475 H         8 <8>         0.059702 
     67 H15        10.596218   17.981464    8.095030 H         8 <8>         0.149127 
     68 H16        12.583700   17.126539    7.190334 H         8 <8>         0.052746 
     69 H17        10.244032   15.192923    6.794330 H         8 <8>         0.063235 
     70 H18        12.726223   15.755548    5.117088 H         8 <8>         0.058313 
     71 H19        12.022638   16.989611    3.252296 H         8 <8>         0.149509 
     72 H20         9.570664   16.082408    1.876996 H         8 <8>         0.059702 
     73 H21         9.784399   15.321502   -0.534458 H         8 <8>         0.149075 
     74 H22        10.934635   12.964187   -0.856517 H         8 <8>         0.051152 
     75 H23        12.398348   13.962080   -1.063125 H         8 <8>         0.051152 
     76 H24        10.187620   12.323930   -3.089248 H         1 PHENYL      0.062079 
     77 H25         9.698494   12.885351   -5.447681 H         1 PHENYL      0.061767 
     78 H26        10.205712   15.153806   -6.321984 H         1 PHENYL      0.061758 
     79 H27        11.203565   16.865173   -4.822238 H         1 PHENYL      0.061767 
     80 H28        11.697441   16.305759   -2.457964 H         1 PHENYL      0.062079 
     81 H29        12.064189   14.433819    8.530038 H         8 <8>         0.033193 
     82 H30        13.183695   15.669068    9.186156 H         8 <8>         0.033193 
     83 H31        13.474905   12.646187    7.895862 H         2 PHENYL      0.062030 
     84 H32        15.411220   11.733199    6.678099 H         2 PHENYL      0.061766 
     85 H33        16.918302   13.249637    5.414424 H         2 PHENYL      0.061758 
     86 H34        16.589418   15.708635    5.558192 H         2 PHENYL      0.061766 
     87 H35        14.799821   16.638625    6.959715 H         2 PHENYL      0.062030 
     88 H36        10.603190   19.565118    9.894290 H         3 ISOPROPYL    0.031802 
     89 H37        12.502051   18.242687   10.844691 H         3 ISOPROPYL    0.023302 
     90 H38        11.787012   18.364208   12.475898 H         3 ISOPROPYL    0.023302 
     91 H39        12.327152   19.831386   11.627568 H         3 ISOPROPYL    0.023302 
     92 H40        10.014081   20.929761   11.855910 H         3 ISOPROPYL    0.023302 
     93 H41         9.393005   19.503580   12.726658 H         3 ISOPROPYL    0.023302 
     94 H42         8.563144   20.082158   11.254623 H         3 ISOPROPYL    0.023302 
     95 H43        10.016203   17.718855    0.167627 H         4 ISOPROPYL    0.031802 
     96 H44        12.500475   17.491621   -0.062908 H         4 ISOPROPYL    0.023302 
     97 H45        12.734753   18.363205    1.476832 H         4 ISOPROPYL    0.023302 
     98 H46        11.989037   19.189022    0.089155 H         4 ISOPROPYL    0.023302 
     99 H47         9.923965   19.812933    1.488965 H         4 ISOPROPYL    0.023302 
    100 H48        10.595982   18.987097    2.920069 H         4 ISOPROPYL    0.023302 
    101 H49         8.981230   18.536174    2.304812 H         4 ISOPROPYL    0.023302 
    102 H50        10.787659   17.712716    5.531104 H         5 OH          0.209942 
    103 H51        11.094995   13.257878    5.550116 H         8 <8>         0.123028 
    104 H52        13.766085   13.776847    4.258388 H         7 <7>         0.047363 
    105 H53        12.319961   13.121370    3.449761 H         7 <7>         0.047363 
    106 H54        14.862541   11.849034    3.130435 H         6 PHENYL      0.062070 
    107 H55        15.768243    9.587643    3.539330 H         6 PHENYL      0.061767 
    108 H56        14.770396    8.145679    5.300452 H         6 PHENYL      0.061758 
    109 H57        12.857636    8.983760    6.643643 H         6 PHENYL      0.061767 
    110 H58        11.962016   11.238781    6.259214 H         6 PHENYL      0.062070 
@<TRIPOS>BOND
     1   10    1 am   
     2    1    2 1    
     3    2    3 1    
     4    3    4 1    
     5    4    5 1    
     6    5    6 1    
     7    6    7 1    
     8    1    8 2    
     9    2    9 1    
    10    2   29 1    
    11   10   11 1    
    12   11   12 1    
    13   12   13 am   
    14   13   14 1    
    15   14   15 1    
    16   15   16 1    
    17   16   17 1    
    18   17   18 am   
    19   18   19 1    
    20   19   20 1    
    21   20   21 am   
    22   21   22 1    
    23   23   24 ar   
    24   23   28 ar   
    25   28   27 ar   
    26   27   26 ar   
    27   26   25 ar   
    28   25   24 ar   
    29   22   23 1    
    30    3   48 1    
    31   12   30 2    
    32   17   31 2    
    33   20   32 2    
    34   14   33 1    
    35   34   35 ar   
    36   34   39 ar   
    37   39   38 ar   
    38   38   37 ar   
    39   37   36 ar   
    40   36   35 ar   
    41   33   34 1    
    42   40   41 1    
    43   40   42 1    
    44   11   40 1    
    45   43   44 1    
    46   43   45 1    
    47   19   43 1    
    48   16   47 1    
    49   15   46 1    
    50   49   47 1    
    51    3   56 1    
    52   50   51 ar   
    53   50   55 ar   
    54   55   54 ar   
    55   54   53 ar   
    56   53   52 ar   
    57   52   51 ar   
    58   49   50 1    
    59    4   57 1    
    60    4   58 1    
    61    5   59 1    
    62    5   60 1    
    63    6   61 1    
    64    6   62 1    
    65    7   63 1    
    66    7   64 1    
    67   10   65 1    
    68   11   66 1    
    69   13   67 1    
    70   14   68 1    
    71   15   69 1    
    72   16   70 1    
    73   18   71 1    
    74   19   72 1    
    75   21   73 1    
    76   22   74 1    
    77   22   75 1    
    78   24   76 1    
    79   25   77 1    
    80   26   78 1    
    81   27   79 1    
    82   28   80 1    
    83   33   81 1    
    84   33   82 1    
    85   35   83 1    
    86   36   84 1    
    87   37   85 1    
    88   38   86 1    
    89   39   87 1    
    90   40   88 1    
    91   41   89 1    
    92   41   90 1    
    93   41   91 1    
    94   42   92 1    
    95   42   93 1    
    96   42   94 1    
    97   43   95 1    
    98   44   96 1    
    99   44   97 1    
   100   44   98 1    
   101   45   99 1    
   102   45  100 1    
   103   45  101 1    
   104   46  102 1    
   105   47  103 1    
   106   49  104 1    
   107   49  105 1    
   108   51  106 1    
   109   52  107 1    
   110   53  108 1    
   111   54  109 1    
   112   55  110 1    
@<TRIPOS>SUBSTRUCTURE
     1 PHENYL     23 PERM              0 ****  ****    1  
     2 PHENYL     34 PERM              0 ****  ****    1  
     3 ISOPROPYL    40 PERM              0 ****  ****    1  
     4 ISOPROPYL    43 PERM              0 ****  ****    1  
     5 OH         46 PERM              0 ****  ****    1  
     6 PHENYL     50 PERM              0 ****  ****    1  
     7 ****       49 PERM              0 ****  ****    2 ROOT 
     8 ****       10 PERM              0 ****  ****    6  
@<TRIPOS>NORMAL
@<TRIPOS>FF_PBC
FORCE_FIELD_SETUP_FEATURE Force Field Setup information
v1.0  0 0.000000 0.000000 0.000000 0.000000 0.000000 0.000000 NONE 0 0 0 0 1 0 0 0 0 0 0 0 0
