#	Name:			Sc16
#	Creating user name:	nsalim
#	Creation time:		Wed Feb  9 13:39:20 2005

#	Modifying user name:	nsalim
#	Modification time:	Wed Feb  9 13:39:30 2005

@<TRIPOS>MOLECULE
Sc16
  106   109     8     1     0
SMALL
GASTEIGER


@<TRIPOS>ATOM
      1 C1          7.316929   16.520820    9.465815 C.2       8 <8>         0.353184 
      2 O2          6.323218   15.847196   10.062299 O.3       8 <8>        -0.293604 
      3 C3          4.209105   14.640380    9.924734 C.ar      8 <8>         0.067482 
      4 C4          3.917957   14.961584   11.254500 C.ar      8 <8>        -0.038101 
      5 C5          2.920124   14.254860   11.930422 C.ar      8 <8>        -0.058560 
      6 C6          2.224799   13.245715   11.260592 C.ar      8 <8>        -0.043574 
      7 C7          2.546224   12.966562    9.929088 C.ar      8 <8>         0.027953 
      8 O8          7.357014   16.723383    8.262373 O.2       8 <8>        -0.241337 
      9 N9          3.518754   13.659684    9.302318 N.ar      8 <8>        -0.257546 
     10 N10         8.254152   16.944529   10.340299 N.am      8 <8>        -0.279805 
     11 C11         9.440913   17.658083    9.859364 C.3       8 <8>         0.103775 
     12 C12        10.398067   16.664831    9.231651 C.2       8 <8>         0.233986 
     13 N13        11.458430   17.126191    8.525706 N.am      8 <8>        -0.308078 
     14 C14        12.241126   16.227033    7.670458 C.3       8 <8>         0.054959 
     15 C15        11.304085   15.976006    6.448733 C.3       8 <8>         0.097537 
     16 C16        11.888473   15.136112    5.277418 C.3       8 <8>         0.112915 
     17 C17        10.953685   15.355305    4.101113 C.2       8 <8>         0.233264 
     18 N18        11.146200   16.399449    3.257330 N.am      8 <8>        -0.302393 
     19 C19        10.233278   16.641020    2.132702 C.3       8 <8>         0.101694 
     20 C20        10.871758   16.196319    0.834829 C.2       8 <8>         0.233871 
     21 N21        10.078785   16.040006   -0.252119 N.am      8 <8>        -0.309666 
     22 C22        10.645289   15.672271   -1.547635 C.3       8 <8>         0.036886 
     23 C           9.889649   16.438192   -2.642406 C.ar      1 PHENYL     -0.030323 
     24 C           9.286393   15.775715   -3.718020 C.ar      1 PHENYL     -0.057077 
     25 C           8.588394   16.500966   -4.688723 C.ar      1 PHENYL     -0.061452 
     26 C           8.493713   17.892268   -4.591151 C.ar      1 PHENYL     -0.061740 
     27 C           9.101274   18.558426   -3.523037 C.ar      1 PHENYL     -0.061452 
     28 C           9.798826   17.831833   -2.553685 C.ar      1 PHENYL     -0.057077 
     29 H1          4.459123   15.753458   11.762021 H         8 <8>         0.063619 
     30 O30        10.169050   15.472776    9.360410 O.2       8 <8>        -0.273760 
     31 O31        10.035762   14.562796    3.963147 O.2       8 <8>        -0.273988 
     32 O32        12.077211   16.004885    0.804369 O.2       8 <8>        -0.273762 
     33 C33        12.753911   14.958829    8.417505 C.3       8 <8>        -0.006715 
     34 C          14.226444   14.648564    8.091816 C.ar      2 PHENYL     -0.045529 
     35 C          14.598917   13.473435    7.430622 C.ar      2 PHENYL     -0.058512 
     36 C          15.932610   13.244263    7.079825 C.ar      2 PHENYL     -0.061501 
     37 C          16.917026   14.171006    7.432642 C.ar      2 PHENYL     -0.061742 
     38 C          16.562139   15.322644    8.140055 C.ar      2 PHENYL     -0.061501 
     39 C          15.224004   15.555300    8.471332 C.ar      2 PHENYL     -0.058512 
     40 C1         10.106328   18.560047   10.946486 C.3       3 ISOPROPYL   -0.019657 
     41 C2         10.786698   17.740179   12.077815 C.3       3 ISOPROPYL   -0.060524 
     42 C3          9.074898   19.566722   11.529115 C.3       3 ISOPROPYL   -0.060524 
     43 C1          9.780239   18.131736    2.014270 C.3       4 ISOPROPYL   -0.019730 
     44 C2         10.944006   19.104672    1.670952 C.3       4 ISOPROPYL   -0.060525 
     45 C3          9.052365   18.600667    3.302738 C.3       4 ISOPROPYL   -0.060525 
     46 O1         10.875167   17.266537    5.969573 O.3       5 OH         -0.387906 
     47 N47        11.942426   13.688800    5.611331 N.3       8 <8>        -0.299550 
     48 H2          2.688331   14.487441   12.965470 H         8 <8>         0.061859 
     49 C49        12.671001   12.865998    4.615624 C.3       7 <7>         0.021997 
     50 C          12.632546   11.348770    4.871431 C.ar      6 PHENYL     -0.033558 
     51 C          13.081893   10.488000    3.862513 C.ar      6 PHENYL     -0.057350 
     52 C          13.061672    9.101347    4.042400 C.ar      6 PHENYL     -0.061461 
     53 C          12.597956    8.560613    5.244026 C.ar      6 PHENYL     -0.061741 
     54 C          12.152627    9.411437    6.259518 C.ar      6 PHENYL     -0.061461 
     55 C          12.166523   10.796979    6.072571 C.ar      6 PHENYL     -0.057350 
     56 H3          1.445009   12.685193   11.767216 H         8 <8>         0.063265 
     57 H4          2.014670   12.189812    9.389881 H         8 <8>         0.082945 
     58 H5          8.169620   16.704394   11.306608 H         8 <8>         0.151734 
     59 H6          9.133023   18.330830    9.041017 H         8 <8>         0.059775 
     60 H7         11.633578   18.109123    8.448038 H         8 <8>         0.149127 
     61 H8         13.120022   16.777239    7.293726 H         8 <8>         0.052746 
     62 H9         10.386805   15.469710    6.791284 H         8 <8>         0.063235 
     63 H10        12.897695   15.507933    5.040295 H         8 <8>         0.058313 
     64 H11        11.941387   16.995544    3.354407 H         8 <8>         0.149509 
     65 H12         9.312548   16.044982    2.248492 H         8 <8>         0.059702 
     66 H13         9.083887   16.152369   -0.197497 H         8 <8>         0.149075 
     67 H14        10.561146   14.582538   -1.683416 H         8 <8>         0.051152 
     68 H15        11.707594   15.951794   -1.637551 H         8 <8>         0.051152 
     69 H16         9.354608   14.695954   -3.805923 H         1 PHENYL      0.062079 
     70 H17         8.118753   15.982955   -5.519819 H         1 PHENYL      0.061767 
     71 H18         7.949437   18.454782   -5.343995 H         1 PHENYL      0.061758 
     72 H19         9.031465   19.639493   -3.445996 H         1 PHENYL      0.061767 
     73 H20        10.271186   18.353329   -1.726565 H         1 PHENYL      0.062079 
     74 H21        12.095507   14.097618    8.225693 H         8 <8>         0.033193 
     75 H22        12.738573   15.151593    9.501822 H         8 <8>         0.033193 
     76 H23        13.854794   12.727223    7.189288 H         2 PHENYL      0.062030 
     77 H24        16.203512   12.344302    6.535489 H         2 PHENYL      0.061766 
     78 H25        17.953353   13.995937    7.160855 H         2 PHENYL      0.061758 
     79 H26        17.326520   16.036255    8.433192 H         2 PHENYL      0.061766 
     80 H27        14.962043   16.449069    9.029641 H         2 PHENYL      0.062030 
     81 H28        10.900629   19.158354   10.465491 H         3 ISOPROPYL    0.031803 
     82 H29        11.529710   17.046854   11.654707 H         3 ISOPROPYL    0.023302 
     83 H30        10.053385   17.160574   12.655685 H         3 ISOPROPYL    0.023302 
     84 H31        11.307318   18.418376   12.772306 H         3 ISOPROPYL    0.023302 
     85 H32         9.568795   20.257700   12.229607 H         3 ISOPROPYL    0.023302 
     86 H33         8.270903   19.045107   12.068678 H         3 ISOPROPYL    0.023302 
     87 H34         8.622575   20.161430   10.719917 H         3 ISOPROPYL    0.023302 
     88 H35         9.051202   18.203509    1.187174 H         4 ISOPROPYL    0.031802 
     89 H36        11.466919   18.782456    0.757949 H         4 ISOPROPYL    0.023302 
     90 H37        11.674040   19.169278    2.490447 H         4 ISOPROPYL    0.023302 
     91 H38        10.546299   20.116706    1.495156 H         4 ISOPROPYL    0.023302 
     92 H39         8.640394   19.613034    3.167106 H         4 ISOPROPYL    0.023302 
     93 H40         9.750188   18.626249    4.149585 H         4 ISOPROPYL    0.023302 
     94 H41         8.224180   17.918901    3.550174 H         4 ISOPROPYL    0.023302 
     95 H42        11.591717   17.821676    5.681966 H         5 OH          0.209942 
     96 H43        10.930603   13.312379    5.716494 H         8 <8>         0.123028 
     97 H44        13.730825   13.165381    4.606575 H         7 <7>         0.047363 
     98 H45        12.256452   13.041777    3.609073 H         7 <7>         0.047363 
     99 H46        13.452061   10.895699    2.926614 H         6 PHENYL      0.062070 
    100 H47        13.405808    8.444426    3.248659 H         6 PHENYL      0.061767 
    101 H48        12.582694    7.484238    5.388360 H         6 PHENYL      0.061758 
    102 H49        11.794413    8.993701    7.196107 H         6 PHENYL      0.061767 
    103 H50        11.810660   11.431474    6.876572 H         6 PHENYL      0.062070 
    104 C104        5.302833   15.383486    9.154352 C.3       8 <8>         0.100526 
    105 H51         5.726520   14.686015    8.413570 H         8 <8>         0.063192 
    106 H52         4.822139   16.224625    8.629391 H         8 <8>         0.063192 
@<TRIPOS>BOND
     1   10    1 am   
     2    1    2 1    
     3    2  104 1    
     4    3    4 ar   
     5    4    5 ar   
     6    5    6 ar   
     7    7    6 ar   
     8    1    8 2    
     9    9    7 ar   
    10    3    9 ar   
    11   10   11 1    
    12   11   12 1    
    13   12   13 am   
    14   13   14 1    
    15   14   15 1    
    16   15   16 1    
    17   16   17 1    
    18   17   18 am   
    19   18   19 1    
    20   19   20 1    
    21   20   21 am   
    22   21   22 1    
    23   23   24 ar   
    24   23   28 ar   
    25   28   27 ar   
    26   27   26 ar   
    27   26   25 ar   
    28   25   24 ar   
    29   22   23 1    
    30    4   29 1    
    31   12   30 2    
    32   17   31 2    
    33   20   32 2    
    34   14   33 1    
    35   34   35 ar   
    36   34   39 ar   
    37   39   38 ar   
    38   38   37 ar   
    39   37   36 ar   
    40   36   35 ar   
    41   33   34 1    
    42   40   41 1    
    43   40   42 1    
    44   11   40 1    
    45   43   44 1    
    46   43   45 1    
    47   19   43 1    
    48   16   47 1    
    49   15   46 1    
    50   49   47 1    
    51    5   48 1    
    52   50   51 ar   
    53   50   55 ar   
    54   55   54 ar   
    55   54   53 ar   
    56   53   52 ar   
    57   52   51 ar   
    58   49   50 1    
    59    6   56 1    
    60    7   57 1    
    61   10   58 1    
    62   11   59 1    
    63   13   60 1    
    64   14   61 1    
    65   15   62 1    
    66   16   63 1    
    67   18   64 1    
    68   19   65 1    
    69   21   66 1    
    70   22   67 1    
    71   22   68 1    
    72   24   69 1    
    73   25   70 1    
    74   26   71 1    
    75   27   72 1    
    76   28   73 1    
    77   33   74 1    
    78   33   75 1    
    79   35   76 1    
    80   36   77 1    
    81   37   78 1    
    82   38   79 1    
    83   39   80 1    
    84   40   81 1    
    85   41   82 1    
    86   41   83 1    
    87   41   84 1    
    88   42   85 1    
    89   42   86 1    
    90   42   87 1    
    91   43   88 1    
    92   44   89 1    
    93   44   90 1    
    94   44   91 1    
    95   45   92 1    
    96   45   93 1    
    97   45   94 1    
    98   46   95 1    
    99   47   96 1    
   100   49   97 1    
   101   49   98 1    
   102   51   99 1    
   103   52  100 1    
   104   53  101 1    
   105   54  102 1    
   106   55  103 1    
   107  104    3 1    
   108  104  105 1    
   109  104  106 1    
@<TRIPOS>SUBSTRUCTURE
     1 PHENYL     23 PERM              0 ****  ****    1  
     2 PHENYL     34 PERM              0 ****  ****    1  
     3 ISOPROPYL    40 PERM              0 ****  ****    1  
     4 ISOPROPYL    43 PERM              0 ****  ****    1  
     5 OH         46 PERM              0 ****  ****    1  
     6 PHENYL     50 PERM              0 ****  ****    1  
     7 ****       49 PERM              0 ****  ****    2 ROOT 
     8 ****       10 PERM              0 ****  ****    6  
@<TRIPOS>NORMAL
@<TRIPOS>FF_PBC
FORCE_FIELD_SETUP_FEATURE Force Field Setup information
v1.0  0 0.000000 0.000000 0.000000 0.000000 0.000000 0.000000 NONE 0 0 0 0 1 0 0 0 0 0 0 0 0
