#	Name:			Sc17
#	Creating user name:	nsalim
#	Creation time:		Wed Feb  9 13:41:08 2005

#	Modifying user name:	nsalim
#	Modification time:	Wed Feb  9 13:41:37 2005

@<TRIPOS>MOLECULE
Sc17
  106   110     8     1     0
SMALL
GASTEIGER


@<TRIPOS>ATOM
      1 C1          7.528025   16.433717    9.355478 C.ar      8 <8>         0.107931 
      2 C2          6.969066   15.177254    9.595576 C.ar      8 <8>        -0.024478 
      3 C3          6.335979   14.503434    8.547992 C.ar      8 <8>        -0.049602 
      4 C4          6.290129   15.093187    7.279034 C.ar      8 <8>         0.000496 
      5 C5          6.855032   16.362279    7.103898 C.ar      8 <8>         0.072778 
      6 N6          7.427826   17.008847    8.140429 N.ar      8 <8>        -0.235465 
      7 C7          6.830889   16.974452    5.847524 C.ar      8 <8>        -0.035680 
      8 C8          6.252539   16.317602    4.757928 C.ar      8 <8>        -0.059717 
      9 C9          5.682031   15.053225    4.931328 C.ar      8 <8>        -0.061074 
     10 N10         8.221437   17.110581   10.380410 N.3       8 <8>        -0.260920 
     11 C11         9.534654   17.707005   10.041647 C.3       8 <8>         0.092047 
     12 C12        10.375409   16.728085    9.244532 C.2       8 <8>         0.230962 
     13 N13        11.350257   17.220816    8.444609 N.am      8 <8>        -0.308311 
     14 C14        12.114542   16.338260    7.557291 C.3       8 <8>         0.054950 
     15 C15        11.150003   15.861739    6.429150 C.3       8 <8>         0.097537 
     16 C16        11.864894   15.099407    5.269865 C.3       8 <8>         0.112915 
     17 C17        11.062352   15.275863    3.996497 C.2       8 <8>         0.233264 
     18 N18        11.137482   16.452897    3.331829 N.am      8 <8>        -0.302393 
     19 C19        10.351863   16.662364    2.112552 C.3       8 <8>         0.101694 
     20 C20        11.028930   16.011568    0.925254 C.2       8 <8>         0.233871 
     21 N21        10.302501   15.811174   -0.199906 N.am      8 <8>        -0.309666 
     22 C22        10.920932   15.252725   -1.400238 C.3       8 <8>         0.036886 
     23 C          10.281721   15.900741   -2.636594 C.ar      1 PHENYL     -0.030323 
     24 C           9.771452   15.128816   -3.686840 C.ar      1 PHENYL     -0.057077 
     25 C           9.170652   15.747146   -4.787715 C.ar      1 PHENYL     -0.061452 
     26 C           9.081290   17.140842   -4.846849 C.ar      1 PHENYL     -0.061740 
     27 C           9.601444   17.916163   -3.806946 C.ar      1 PHENYL     -0.061452 
     28 C          10.204255   17.296164   -2.708744 C.ar      1 PHENYL     -0.057077 
     29 C29         5.696291   14.443994    6.189968 C.ar      8 <8>        -0.052564 
     30 O30        10.152146   15.532217    9.342666 O.2       8 <8>        -0.274071 
     31 O31        10.355152   14.357313    3.614518 O.2       8 <8>        -0.273988 
     32 O32        12.206874   15.702277    1.009474 O.2       8 <8>        -0.273762 
     33 C33        12.807741   15.199811    8.365998 C.3       8 <8>        -0.006715 
     34 C          14.263229   14.954164    7.934451 C.ar      2 PHENYL     -0.045529 
     35 C          14.672735   13.713054    7.435734 C.ar      2 PHENYL     -0.058512 
     36 C          15.984144   13.521335    6.991672 C.ar      2 PHENYL     -0.061501 
     37 C          16.911653   14.562525    7.083651 C.ar      2 PHENYL     -0.061742 
     38 C          16.523616   15.790813    7.624828 C.ar      2 PHENYL     -0.061501 
     39 C          15.207374   15.981083    8.055232 C.ar      2 PHENYL     -0.058512 
     40 C1         10.330395   18.165769   11.300662 C.3       3 ISOPROPYL   -0.022437 
     41 C2         10.535609   16.984028   12.287155 C.3       3 ISOPROPYL   -0.060783 
     42 C3          9.656181   19.365319   12.024458 C.3       3 ISOPROPYL   -0.060783 
     43 C1         10.064264   18.166596    1.802749 C.3       4 ISOPROPYL   -0.019730 
     44 C2         11.335929   18.955555    1.376575 C.3       4 ISOPROPYL   -0.060525 
     45 C3          9.365604   18.865709    3.002242 C.3       4 ISOPROPYL   -0.060525 
     46 O1         10.501343   17.065478    5.961028 O.3       5 OH         -0.387906 
     47 N47        12.034345   13.658280    5.589501 N.3       8 <8>        -0.299550 
     48 H1          7.032681   14.734722   10.584050 H         8 <8>         0.064902 
     49 C49        12.955287   12.935220    4.678642 C.3       7 <7>         0.021997 
     50 C          13.108876   11.433953    4.973644 C.ar      6 PHENYL     -0.033558 
     51 C          13.806203   10.639945    4.055130 C.ar      6 PHENYL     -0.057350 
     52 C          13.961934    9.267576    4.270293 C.ar      6 PHENYL     -0.061461 
     53 C          13.424460    8.675886    5.416070 C.ar      6 PHENYL     -0.061741 
     54 C          12.735092    9.462011    6.342943 C.ar      6 PHENYL     -0.061461 
     55 C          12.579065   10.834044    6.123346 C.ar      6 PHENYL     -0.057350 
     56 H2          5.887701   13.530615    8.725873 H         8 <8>         0.062505 
     57 H3          7.262703   17.962095    5.724352 H         8 <8>         0.063889 
     58 H4          6.243910   16.788300    3.778950 H         8 <8>         0.061823 
     59 H5          5.226091   14.544455    4.086834 H         8 <8>         0.061777 
     60 H6          7.560688   17.848028   10.812507 H         8 <8>         0.129884 
     61 H7          9.347369   18.575636    9.387627 H         8 <8>         0.056246 
     62 H8         11.516164   18.208114    8.387529 H         8 <8>         0.149118 
     63 H9         12.888198   16.951574    7.065512 H         8 <8>         0.052746 
     64 H10        10.381510   15.204095    6.870408 H         8 <8>         0.063235 
     65 H11        12.854188   15.553279    5.102422 H         8 <8>         0.058313 
     66 H12        11.747585   17.175885    3.654318 H         8 <8>         0.149509 
     67 H13         9.370972   16.173823    2.241483 H         8 <8>         0.059702 
     68 H14         9.322598   16.018355   -0.234379 H         8 <8>         0.149075 
     69 H15        10.786378   14.159805   -1.398290 H         8 <8>         0.051152 
     70 H16        11.999965   15.469359   -1.453031 H         8 <8>         0.051152 
     71 H17         9.837658   14.046132   -3.654139 H         1 PHENYL      0.062079 
     72 H18         8.772356   15.144366   -5.598338 H         1 PHENYL      0.061767 
     73 H19         8.609222   17.620437   -5.699081 H         1 PHENYL      0.061758 
     74 H20         9.537233   18.999217   -3.851914 H         1 PHENYL      0.061767 
     75 H21        10.613166   17.903315   -1.907163 H         1 PHENYL      0.062079 
     76 H22         5.243994   13.464524    6.313065 H         8 <8>         0.062409 
     77 H23        12.210271   14.276229    8.325216 H         8 <8>         0.033193 
     78 H24        12.872790   15.501352    9.423326 H         8 <8>         0.033193 
     79 H25        13.975007   12.886692    7.394953 H         2 PHENYL      0.062030 
     80 H26        16.281950   12.562739    6.577445 H         2 PHENYL      0.061766 
     81 H27        17.930396   14.416872    6.738254 H         2 PHENYL      0.061758 
     82 H28        17.245215   16.597466    7.712408 H         2 PHENYL      0.061766 
     83 H29        14.922517   16.934301    8.489627 H         2 PHENYL      0.062030 
     84 H30        11.325402   18.511915   10.967408 H         3 ISOPROPYL    0.031528 
     85 H31        11.109329   17.315713   13.166307 H         3 ISOPROPYL    0.023293 
     86 H32        11.089927   16.163225   11.806948 H         3 ISOPROPYL    0.023293 
     87 H33         9.563737   16.596943   12.628854 H         3 ISOPROPYL    0.023293 
     88 H34        10.318101   19.745755   12.818109 H         3 ISOPROPYL    0.023293 
     89 H35         8.705615   19.070256   12.491517 H         3 ISOPROPYL    0.023293 
     90 H36         9.463223   20.186439   11.316761 H         3 ISOPROPYL    0.023293 
     91 H37         9.364107   18.210026    0.949042 H         4 ISOPROPYL    0.031802 
     92 H38        11.810580   18.496374    0.496085 H         4 ISOPROPYL    0.023302 
     93 H39        12.076962   18.998361    2.187113 H         4 ISOPROPYL    0.023302 
     94 H40        11.064035   19.989219    1.111264 H         4 ISOPROPYL    0.023302 
     95 H41         9.058725   19.885884    2.723490 H         4 ISOPROPYL    0.023302 
     96 H42        10.040667   18.937712    3.867263 H         4 ISOPROPYL    0.023302 
     97 H43         8.466532   18.306758    3.303174 H         4 ISOPROPYL    0.023302 
     98 H44         9.721022   16.906772    5.438741 H         5 OH          0.209942 
     99 H45        11.062196   13.177848    5.576984 H         8 <8>         0.123028 
    100 H46        13.960852   13.378265    4.747598 H         7 <7>         0.047363 
    101 H47        12.610396   13.035647    3.636377 H         7 <7>         0.047363 
    102 H48        14.232809   11.090036    3.164000 H         6 PHENYL      0.062070 
    103 H49        14.499982    8.661338    3.547644 H         6 PHENYL      0.061767 
    104 H50        13.542103    7.609913    5.585386 H         6 PHENYL      0.061758 
    105 H51        12.319689    9.005074    7.236212 H         6 PHENYL      0.061767 
    106 H52        12.042660   11.420624    6.860659 H         6 PHENYL      0.062070 
@<TRIPOS>BOND
     1   10    1 1    
     2    1    2 ar   
     3    2    3 ar   
     4    3    4 ar   
     5    4    5 ar   
     6    5    6 ar   
     7    1    6 ar   
     8    5    7 ar   
     9    7    8 ar   
    10    8    9 ar   
    11   10   11 1    
    12   11   12 1    
    13   12   13 am   
    14   13   14 1    
    15   14   15 1    
    16   15   16 1    
    17   16   17 1    
    18   17   18 am   
    19   18   19 1    
    20   19   20 1    
    21   20   21 am   
    22   21   22 1    
    23   23   24 ar   
    24   23   28 ar   
    25   28   27 ar   
    26   27   26 ar   
    27   26   25 ar   
    28   25   24 ar   
    29   22   23 1    
    30    9   29 ar   
    31   12   30 2    
    32   17   31 2    
    33   20   32 2    
    34   14   33 1    
    35   34   35 ar   
    36   34   39 ar   
    37   39   38 ar   
    38   38   37 ar   
    39   37   36 ar   
    40   36   35 ar   
    41   33   34 1    
    42   40   41 1    
    43   40   42 1    
    44   11   40 1    
    45   43   44 1    
    46   43   45 1    
    47   19   43 1    
    48   16   47 1    
    49   15   46 1    
    50   49   47 1    
    51    4   29 ar   
    52   50   51 ar   
    53   50   55 ar   
    54   55   54 ar   
    55   54   53 ar   
    56   53   52 ar   
    57   52   51 ar   
    58   49   50 1    
    59    2   48 1    
    60    3   56 1    
    61    7   57 1    
    62    8   58 1    
    63    9   59 1    
    64   10   60 1    
    65   11   61 1    
    66   13   62 1    
    67   14   63 1    
    68   15   64 1    
    69   16   65 1    
    70   18   66 1    
    71   19   67 1    
    72   21   68 1    
    73   22   69 1    
    74   22   70 1    
    75   24   71 1    
    76   25   72 1    
    77   26   73 1    
    78   27   74 1    
    79   28   75 1    
    80   29   76 1    
    81   33   77 1    
    82   33   78 1    
    83   35   79 1    
    84   36   80 1    
    85   37   81 1    
    86   38   82 1    
    87   39   83 1    
    88   40   84 1    
    89   41   85 1    
    90   41   86 1    
    91   41   87 1    
    92   42   88 1    
    93   42   89 1    
    94   42   90 1    
    95   43   91 1    
    96   44   92 1    
    97   44   93 1    
    98   44   94 1    
    99   45   95 1    
   100   45   96 1    
   101   45   97 1    
   102   46   98 1    
   103   47   99 1    
   104   49  100 1    
   105   49  101 1    
   106   51  102 1    
   107   52  103 1    
   108   53  104 1    
   109   54  105 1    
   110   55  106 1    
@<TRIPOS>SUBSTRUCTURE
     1 PHENYL     23 PERM              0 ****  ****    1  
     2 PHENYL     34 PERM              0 ****  ****    1  
     3 ISOPROPYL    40 PERM              0 ****  ****    1  
     4 ISOPROPYL    43 PERM              0 ****  ****    1  
     5 OH         46 PERM              0 ****  ****    1  
     6 PHENYL     50 PERM              0 ****  ****    1  
     7 ****       49 PERM              0 ****  ****    2 ROOT 
     8 ****       10 PERM              0 ****  ****    6  
@<TRIPOS>NORMAL
@<TRIPOS>FF_PBC
FORCE_FIELD_SETUP_FEATURE Force Field Setup information
v1.0  0 0.000000 0.000000 0.000000 0.000000 0.000000 0.000000 NONE 0 0 0 0 1 0 0 0 0 0 0 0 0
