#	Name:			Sc18
#	Creating user name:	nsalim
#	Creation time:		Wed Feb  9 13:43:43 2005

#	Modifying user name:	nsalim
#	Modification time:	Wed Feb  9 13:45:35 2005

@<TRIPOS>MOLECULE
Sc18
  112   116     8     1     0
SMALL
GASTEIGER


@<TRIPOS>ATOM
      1 C1          7.955910   16.608277   11.905656 C.2       8 <8>         0.214020 
      2 C2          7.624355   15.748919   13.101823 C.3       8 <8>         0.030569 
      3 C3          6.133701   15.325419   13.148850 C.3       8 <8>         0.011585 
      4 C4          5.867976   14.464495   14.355202 C.2       8 <8>         0.100479 
      5 N5          6.746345   13.731145   14.904298 N.2       8 <8>        -0.235019 
      6 N6          4.713020   14.369302   14.957130 N.pl3     8 <8>        -0.301184 
      7 C7          4.890439   13.501365   15.980974 C.ar      8 <8>         0.057913 
      8 O8          7.053112   17.051413   11.214573 O.2       8 <8>        -0.275789 
      9 C9          6.211550   13.083450   15.948006 C.ar      8 <8>         0.086710 
     10 N10         9.264535   16.844939   11.655985 N.am      8 <8>        -0.303741 
     11 C11         9.699906   17.604575   10.479033 C.3       8 <8>         0.101645 
     12 C12        10.626020   16.728852    9.658230 C.2       8 <8>         0.233911 
     13 N13        11.085670   17.189946    8.467767 N.am      8 <8>        -0.308079 
     14 C14        11.955795   16.414161    7.568758 C.3       8 <8>         0.054959 
     15 C15        11.035712   15.948705    6.399345 C.3       8 <8>         0.097537 
     16 C16        11.773421   15.213042    5.243086 C.3       8 <8>         0.112915 
     17 C17        10.970955   15.357346    3.966528 C.2       8 <8>         0.233264 
     18 N18        11.276507   16.337901    3.083950 N.am      8 <8>        -0.302393 
     19 C19        10.603892   16.377019    1.783341 C.3       8 <8>         0.101694 
     20 C20        11.223611   15.323875    0.888269 C.2       8 <8>         0.233871 
     21 N21        10.582662   14.962535   -0.247899 N.am      8 <8>        -0.309666 
     22 C22        11.157242   13.950405   -1.132173 C.3       8 <8>         0.036886 
     23 C          10.823503   14.287722   -2.591256 C.ar      1 PHENYL     -0.030323 
     24 C          10.212568   13.354011   -3.436255 C.ar      1 PHENYL     -0.057077 
     25 C           9.921927   13.689109   -4.762029 C.ar      1 PHENYL     -0.061452 
     26 C          10.240229   14.959888   -5.249553 C.ar      1 PHENYL     -0.061740 
     27 C          10.849084   15.895666   -4.408982 C.ar      1 PHENYL     -0.061452 
     28 C          11.139515   15.558642   -3.083881 C.ar      1 PHENYL     -0.057077 
     29 C29         6.749064   12.180185   16.861029 C.ar      8 <8>        -0.034441 
     30 O30        10.908614   15.638214   10.124846 O.2       8 <8>        -0.273761 
     31 O31        10.069450   14.559311    3.764651 O.2       8 <8>        -0.273988 
     32 O32        12.291831   14.831007    1.215828 O.2       8 <8>        -0.273762 
     33 C33        12.782781   15.270775    8.236629 C.3       8 <8>        -0.006715 
     34 C          13.991510   14.703240    7.462133 C.ar      2 PHENYL     -0.045529 
     35 C          14.192418   13.316608    7.420656 C.ar      2 PHENYL     -0.058512 
     36 C          15.256582   12.762452    6.703338 C.ar      2 PHENYL     -0.061501 
     37 C          16.124840   13.592550    5.991393 C.ar      2 PHENYL     -0.061742 
     38 C          15.956346   14.977731    6.052436 C.ar      2 PHENYL     -0.061501 
     39 C          14.922085   15.528032    6.815757 C.ar      2 PHENYL     -0.058512 
     40 C1         10.367820   18.946946   10.910754 C.3       3 ISOPROPYL   -0.019731 
     41 C2         11.751307   18.736298   11.588556 C.3       3 ISOPROPYL   -0.060525 
     42 C3          9.420046   19.743324   11.849451 C.3       3 ISOPROPYL   -0.060525 
     43 C1         10.637185   17.780544    1.100560 C.3       4 ISOPROPYL   -0.019730 
     44 C2         12.059483   18.197840    0.627202 C.3       4 ISOPROPYL   -0.060525 
     45 C3         10.030553   18.863719    2.035606 C.3       4 ISOPROPYL   -0.060525 
     46 O1         10.324597   17.097782    5.890006 O.3       5 OH         -0.387906 
     47 N47        11.981575   13.769553    5.526444 N.3       8 <8>        -0.299550 
     48 C48         5.862458   11.709453   17.840615 C.ar      8 <8>        -0.059637 
     49 C49        12.801063   13.079832    4.497598 C.3       7 <7>         0.021997 
     50 C          13.212258   11.634587    4.822675 C.ar      6 PHENYL     -0.033558 
     51 C          14.208074   11.037756    4.039488 C.ar      6 PHENYL     -0.057350 
     52 C          14.644818    9.737039    4.305909 C.ar      6 PHENYL     -0.061461 
     53 C          14.077243    9.012929    5.356937 C.ar      6 PHENYL     -0.061741 
     54 C          13.071682    9.593789    6.133718 C.ar      6 PHENYL     -0.061461 
     55 C          12.640153   10.896340    5.866589 C.ar      6 PHENYL     -0.057350 
     56 C56         4.520713   12.129718   17.882953 C.ar      8 <8>        -0.059877 
     57 C57         4.001718   13.038089   16.948533 C.ar      8 <8>        -0.038435 
     58 H1          7.873138   16.315258   14.012617 H         8 <8>         0.036237 
     59 H2          8.254312   14.845827   13.066100 H         8 <8>         0.036237 
     60 H3          5.878688   14.748839   12.245923 H         8 <8>         0.034570 
     61 H4          5.490969   16.218661   13.192317 H         8 <8>         0.034570 
     62 H5          3.839179   14.854527   14.706729 H         8 <8>         0.153316 
     63 H6          9.975489   16.460494   12.246986 H         8 <8>         0.149459 
     64 H7          8.848845   17.841527    9.818344 H         8 <8>         0.059702 
     65 H8         10.771656   18.079436    8.128483 H         8 <8>         0.149127 
     66 H9         12.671963   17.138711    7.154729 H         8 <8>         0.052746 
     67 H10        10.260382   15.283049    6.810630 H         8 <8>         0.063235 
     68 H11        12.748576   15.702252    5.102993 H         8 <8>         0.058313 
     69 H12        12.028037   16.971287    3.257384 H         8 <8>         0.149509 
     70 H13         9.541339   16.113102    1.920640 H         8 <8>         0.059702 
     71 H14         9.688804   15.344695   -0.489500 H         8 <8>         0.149075 
     72 H15        10.764879   12.962871   -0.843795 H         8 <8>         0.051152 
     73 H16        12.256557   13.914930   -1.067770 H         8 <8>         0.051152 
     74 H17         9.960796   12.364246   -3.069554 H         1 PHENYL      0.062079 
     75 H18         9.448705   12.961657   -5.414361 H         1 PHENYL      0.061767 
     76 H19        10.015061   15.219466   -6.279498 H         1 PHENYL      0.061758 
     77 H20        11.096811   16.883723   -4.784958 H         1 PHENYL      0.061767 
     78 H21        11.613440   16.288105   -2.434540 H         1 PHENYL      0.062079 
     79 H22         7.786201   11.867108   16.810303 H         8 <8>         0.063930 
     80 H23        12.091692   14.446037    8.466745 H         8 <8>         0.033193 
     81 H24        13.211640   15.651959    9.176590 H         8 <8>         0.033193 
     82 H25        13.522889   12.650268    7.954078 H         2 PHENYL      0.062030 
     83 H26        15.407739   11.687176    6.697773 H         2 PHENYL      0.061766 
     84 H27        16.926090   13.162941    5.397873 H         2 PHENYL      0.061758 
     85 H28        16.635006   15.628161    5.508608 H         2 PHENYL      0.061766 
     86 H29        14.866574   16.606480    6.902413 H         2 PHENYL      0.062030 
     87 H30        10.536655   19.565844   10.011847 H         3 ISOPROPYL    0.031802 
     88 H31        12.438901   18.193956   10.921019 H         3 ISOPROPYL    0.023302 
     89 H32        11.653356   18.171124   12.526765 H         3 ISOPROPYL    0.023302 
     90 H33        12.206008   19.711563   11.823220 H         3 ISOPROPYL    0.023302 
     91 H34         9.855078   20.726079   12.089771 H         3 ISOPROPYL    0.023302 
     92 H35         9.255487   19.197037   12.790641 H         3 ISOPROPYL    0.023302 
     93 H36         8.445153   19.905154   11.363382 H         3 ISOPROPYL    0.023302 
     94 H37        10.003357   17.734061    0.196769 H         4 ISOPROPYL    0.031802 
     95 H38        12.481187   17.449083   -0.060557 H         4 ISOPROPYL    0.023302 
     96 H39        12.751014   18.321642    1.472407 H         4 ISOPROPYL    0.023302 
     97 H40        12.008552   19.157787    0.089724 H         4 ISOPROPYL    0.023302 
     98 H41         9.974039   19.832005    1.513882 H         4 ISOPROPYL    0.023302 
     99 H42        10.643932   18.995029    2.939206 H         4 ISOPROPYL    0.023302 
    100 H43         9.012564   18.578873    2.344226 H         4 ISOPROPYL    0.023302 
    101 H44        10.890211   17.759506    5.506050 H         5 OH          0.209942 
    102 H45        11.015202   13.285559    5.604408 H         8 <8>         0.123028 
    103 H46         6.222812   11.003940   18.582912 H         8 <8>         0.061824 
    104 H47        13.733964   13.647902    4.355804 H         7 <7>         0.047363 
    105 H48        12.272826   13.049190    3.530441 H         7 <7>         0.047363 
    106 H49        14.651056   11.587331    3.214806 H         6 PHENYL      0.062070 
    107 H50        15.424196    9.289843    3.696549 H         6 PHENYL      0.061767 
    108 H51        14.415572    8.003223    5.568384 H         6 PHENYL      0.061758 
    109 H52        12.624702    9.030599    6.947568 H         6 PHENYL      0.061767 
    110 H53        11.858417   11.318347    6.485962 H         6 PHENYL      0.062070 
    111 H54         3.867143   11.742363   18.658522 H         8 <8>         0.061817 
    112 H55         2.968642   13.367717   16.969859 H         8 <8>         0.063671 
@<TRIPOS>BOND
     1   10    1 am   
     2    1    2 1    
     3    2    3 1    
     4    3    4 1    
     5    4    5 2    
     6    4    6 1    
     7    6    7 1    
     8    1    8 2    
     9    7    9 ar   
    10    5    9 1    
    11   10   11 1    
    12   11   12 1    
    13   12   13 am   
    14   13   14 1    
    15   14   15 1    
    16   15   16 1    
    17   16   17 1    
    18   17   18 am   
    19   18   19 1    
    20   19   20 1    
    21   20   21 am   
    22   21   22 1    
    23   23   24 ar   
    24   23   28 ar   
    25   28   27 ar   
    26   27   26 ar   
    27   26   25 ar   
    28   25   24 ar   
    29   22   23 1    
    30    9   29 ar   
    31   12   30 2    
    32   17   31 2    
    33   20   32 2    
    34   14   33 1    
    35   34   35 ar   
    36   34   39 ar   
    37   39   38 ar   
    38   38   37 ar   
    39   37   36 ar   
    40   36   35 ar   
    41   33   34 1    
    42   40   41 1    
    43   40   42 1    
    44   11   40 1    
    45   43   44 1    
    46   43   45 1    
    47   19   43 1    
    48   16   47 1    
    49   15   46 1    
    50   49   47 1    
    51   29   48 ar   
    52   50   51 ar   
    53   50   55 ar   
    54   55   54 ar   
    55   54   53 ar   
    56   53   52 ar   
    57   52   51 ar   
    58   49   50 1    
    59   48   56 ar   
    60   56   57 ar   
    61    7   57 ar   
    62    2   58 1    
    63    2   59 1    
    64    3   60 1    
    65    3   61 1    
    66    6   62 1    
    67   10   63 1    
    68   11   64 1    
    69   13   65 1    
    70   14   66 1    
    71   15   67 1    
    72   16   68 1    
    73   18   69 1    
    74   19   70 1    
    75   21   71 1    
    76   22   72 1    
    77   22   73 1    
    78   24   74 1    
    79   25   75 1    
    80   26   76 1    
    81   27   77 1    
    82   28   78 1    
    83   29   79 1    
    84   33   80 1    
    85   33   81 1    
    86   35   82 1    
    87   36   83 1    
    88   37   84 1    
    89   38   85 1    
    90   39   86 1    
    91   40   87 1    
    92   41   88 1    
    93   41   89 1    
    94   41   90 1    
    95   42   91 1    
    96   42   92 1    
    97   42   93 1    
    98   43   94 1    
    99   44   95 1    
   100   44   96 1    
   101   44   97 1    
   102   45   98 1    
   103   45   99 1    
   104   45  100 1    
   105   46  101 1    
   106   47  102 1    
   107   48  103 1    
   108   49  104 1    
   109   49  105 1    
   110   51  106 1    
   111   52  107 1    
   112   53  108 1    
   113   54  109 1    
   114   55  110 1    
   115   56  111 1    
   116   57  112 1    
@<TRIPOS>SUBSTRUCTURE
     1 PHENYL     23 PERM              0 ****  ****    1  
     2 PHENYL     34 PERM              0 ****  ****    1  
     3 ISOPROPYL    40 PERM              0 ****  ****    1  
     4 ISOPROPYL    43 PERM              0 ****  ****    1  
     5 OH         46 PERM              0 ****  ****    1  
     6 PHENYL     50 PERM              0 ****  ****    1  
     7 ****       49 PERM              0 ****  ****    2 ROOT 
     8 ****       10 PERM              0 ****  ****    6  
@<TRIPOS>NORMAL
@<TRIPOS>FF_PBC
FORCE_FIELD_SETUP_FEATURE Force Field Setup information
v1.0  0 0.000000 0.000000 0.000000 0.000000 0.000000 0.000000 NONE 0 0 0 0 1 0 0 0 0 0 0 0 0
