#	Name:			Sc19
#	Creating user name:	nsalim
#	Creation time:		Wed Feb  9 13:43:29 2005

#	Modifying user name:	nsalim
#	Modification time:	Wed Feb  9 13:45:19 2005

@<TRIPOS>MOLECULE
Sc19
  114   118     8     1     0
SMALL
GASTEIGER


@<TRIPOS>ATOM
      1 C1          7.989039   17.134612   12.209827 C.2       8 <8>         0.302932 
      2 N2          7.451741   16.408319   13.232293 N.am      8 <8>        -0.281599 
      3 C3          6.323309   16.971359   13.984571 C.3       8 <8>         0.071624 
      4 C4          5.016130   16.405327   13.498897 C.2       8 <8>         0.117551 
      5 N5          4.779824   16.078390   12.295533 N.2       8 <8>        -0.233403 
      6 N6          3.978867   16.204582   14.267859 N.pl3     8 <8>        -0.299931 
      7 C7          3.005284   15.708022   13.469202 C.ar      8 <8>         0.057951 
      8 O8          7.454944   18.177038   11.867235 O.2       8 <8>        -0.252624 
      9 C9          3.523179   15.626093   12.186042 C.ar      8 <8>         0.086772 
     10 N10         9.115331   16.739236   11.565734 N.am      8 <8>        -0.287686 
     11 C11         9.736356   17.571426   10.526642 C.3       8 <8>         0.103102 
     12 C12        10.498783   16.680550    9.560131 C.2       8 <8>         0.233963 
     13 N13        11.097652   17.226556    8.472154 N.am      8 <8>        -0.308079 
     14 C14        11.926535   16.447208    7.538239 C.3       8 <8>         0.054959 
     15 C15        11.005917   15.960028    6.379899 C.3       8 <8>         0.097537 
     16 C16        11.763209   15.214279    5.241516 C.3       8 <8>         0.112915 
     17 C17        10.987324   15.338968    3.946833 C.2       8 <8>         0.233264 
     18 N18        11.300462   16.319282    3.066406 N.am      8 <8>        -0.302393 
     19 C19        10.643837   16.356001    1.757299 C.3       8 <8>         0.101694 
     20 C20        11.260569   15.294878    0.869402 C.2       8 <8>         0.233871 
     21 N21        10.620747   14.935022   -0.268027 N.am      8 <8>        -0.309666 
     22 C22        11.193668   13.922206   -1.152271 C.3       8 <8>         0.036886 
     23 C          10.861517   14.265074   -2.610584 C.ar      1 PHENYL     -0.030323 
     24 C          10.236762   13.340680   -3.455782 C.ar      1 PHENYL     -0.057077 
     25 C           9.944874   13.682424   -4.779534 C.ar      1 PHENYL     -0.061452 
     26 C          10.276213   14.950383   -5.265432 C.ar      1 PHENYL     -0.061740 
     27 C          10.900306   15.876491   -4.425149 C.ar      1 PHENYL     -0.061452 
     28 C          11.191679   15.532829   -3.102089 C.ar      1 PHENYL     -0.057077 
     29 C29         2.790193   15.159112   11.098378 C.ar      8 <8>        -0.034440 
     30 O30        10.543147   15.490956    9.825299 O.2       8 <8>        -0.273760 
     31 O31        10.101858   14.527605    3.728288 O.2       8 <8>        -0.273988 
     32 O32        12.324784   14.796636    1.201640 O.2       8 <8>        -0.273762 
     33 C33        12.774005   15.325601    8.218347 C.3       8 <8>        -0.006715 
     34 C          14.029485   14.817463    7.476238 C.ar      2 PHENYL     -0.045529 
     35 C          14.291833   13.441376    7.433871 C.ar      2 PHENYL     -0.058512 
     36 C          15.375473   12.933257    6.712004 C.ar      2 PHENYL     -0.061501 
     37 C          16.217296   13.802885    6.016007 C.ar      2 PHENYL     -0.061742 
     38 C          16.001696   15.180761    6.097162 C.ar      2 PHENYL     -0.061501 
     39 C          14.941790   15.683757    6.858314 C.ar      2 PHENYL     -0.058512 
     40 C1         10.711672   18.610016   11.170659 C.3       3 ISOPROPYL   -0.019680 
     41 C2         11.841928   17.909524   11.975388 C.3       3 ISOPROPYL   -0.060524 
     42 C3          9.979988   19.638626   12.077196 C.3       3 ISOPROPYL   -0.060524 
     43 C1         10.693673   17.754901    1.065277 C.3       4 ISOPROPYL   -0.019730 
     44 C2         12.123782   18.157902    0.604150 C.3       4 ISOPROPYL   -0.060525 
     45 C3         10.084370   18.850020    1.984363 C.3       4 ISOPROPYL   -0.060525 
     46 O1         10.284393   17.094961    5.855777 O.3       5 OH         -0.387906 
     47 N47        11.974448   13.778112    5.556411 N.3       8 <8>        -0.299550 
     48 C48         1.471407   14.770546   11.376283 C.ar      8 <8>        -0.059637 
     49 C49        12.832912   13.071898    4.572343 C.3       7 <7>         0.021997 
     50 C          13.238334   11.639315    4.955182 C.ar      6 PHENYL     -0.033558 
     51 C          14.212126   10.996405    4.181180 C.ar      6 PHENYL     -0.057350 
     52 C          14.640440    9.704604    4.498629 C.ar      6 PHENYL     -0.061461 
     53 C          14.088897    9.036968    5.594728 C.ar      6 PHENYL     -0.061741 
     54 C          13.106417    9.664738    6.364872 C.ar      6 PHENYL     -0.061461 
     55 C          12.680979   10.957283    6.044455 C.ar      6 PHENYL     -0.057350 
     56 C56         0.938929   14.848874   12.675781 C.ar      8 <8>        -0.059877 
     57 C57         1.698521   15.319982   13.756966 C.ar      8 <8>        -0.038435 
     58 C58         7.976093   15.080723   13.563343 C.3       8 <8>         0.005079 
     59 H1          6.260636   18.068569   13.924239 H         8 <8>         0.054271 
     60 H2          6.440424   16.724870   15.050862 H         8 <8>         0.054271 
     61 H3          3.908233   16.392365   15.278377 H         8 <8>         0.153363 
     62 H4          9.603359   15.898252   11.792573 H         8 <8>         0.151019 
     63 H5          8.969626   18.089644    9.927375 H         8 <8>         0.059752 
     64 H6         10.942315   18.191796    8.251060 H         8 <8>         0.149127 
     65 H7         12.632555   17.165660    7.096841 H         8 <8>         0.052746 
     66 H8         10.237164   15.291140    6.797849 H         8 <8>         0.063235 
     67 H9         12.740942   15.701344    5.108784 H         8 <8>         0.058313 
     68 H10        12.041949   16.960952    3.252808 H         8 <8>         0.149509 
     69 H11         9.578060   16.102364    1.886689 H         8 <8>         0.059702 
     70 H12         9.729233   15.321389   -0.512385 H         8 <8>         0.149075 
     71 H13        10.798337   12.934972   -0.867201 H         8 <8>         0.051152 
     72 H14        12.292585   13.884057   -1.083921 H         8 <8>         0.051152 
     73 H15         9.974787   12.353171   -3.090724 H         1 PHENYL      0.062079 
     74 H16         9.460360   12.962432   -5.431705 H         1 PHENYL      0.061767 
     75 H17        10.049696   15.215393   -6.293733 H         1 PHENYL      0.061758 
     76 H18        11.158878   16.862189   -4.800060 H         1 PHENYL      0.061767 
     77 H19        11.677206   16.254965   -2.453084 H         1 PHENYL      0.062079 
     78 H20         3.219643   15.104116   10.104145 H         8 <8>         0.063930 
     79 H21        12.114308   14.466939    8.408266 H         8 <8>         0.033193 
     80 H22        13.141248   15.706561    9.183518 H         8 <8>         0.033193 
     81 H23        13.655360   12.746787    7.971005 H         2 PHENYL      0.062030 
     82 H24        15.562107   11.863600    6.690832 H         2 PHENYL      0.061766 
     83 H25        17.035216   13.410239    5.419448 H         2 PHENYL      0.061758 
     84 H26        16.663204   15.862304    5.570628 H         2 PHENYL      0.061766 
     85 H27        14.853431   16.758049    6.965618 H         2 PHENYL      0.062030 
     86 H28        11.188714   19.196702   10.367208 H         3 ISOPROPYL    0.031803 
     87 H29        12.542956   18.658035   12.376989 H         3 ISOPROPYL    0.023302 
     88 H30        12.411650   17.218774   11.335455 H         3 ISOPROPYL    0.023302 
     89 H31        11.422897   17.341862   12.819858 H         3 ISOPROPYL    0.023302 
     90 H32         9.159689   20.124184   11.525971 H         3 ISOPROPYL    0.023302 
     91 H33        10.679857   20.423054   12.406032 H         3 ISOPROPYL    0.023302 
     92 H34         9.572348   19.153892   12.976458 H         3 ISOPROPYL    0.023302 
     93 H35        10.069578   17.707998    0.154710 H         4 ISOPROPYL    0.031802 
     94 H36        12.545478   17.402592   -0.076401 H         4 ISOPROPYL    0.023302 
     95 H37        12.807826   18.279185    1.455818 H         4 ISOPROPYL    0.023302 
     96 H38        12.084849   19.115732    0.062069 H         4 ISOPROPYL    0.023302 
     97 H39        10.037970   19.813033    1.452085 H         4 ISOPROPYL    0.023302 
     98 H40        10.690274   18.987359    2.891978 H         4 ISOPROPYL    0.023302 
     99 H41         9.062036   18.573627    2.286133 H         4 ISOPROPYL    0.023302 
    100 H42        10.843998   17.759736    5.469103 H         5 OH          0.209942 
    101 H43        11.009833   13.286949    5.612672 H         8 <8>         0.123028 
    102 H44         0.848270   14.401168   10.567485 H         8 <8>         0.061824 
    103 H45        13.769042   13.637817    4.445239 H         7 <7>         0.047363 
    104 H46        12.334531   13.016136    3.590581 H         7 <7>         0.047363 
    105 H47        14.644047   11.503596    3.323981 H         6 PHENYL      0.062070 
    106 H48        15.401082    9.219840    3.894213 H         6 PHENYL      0.061767 
    107 H49        14.421501    8.034528    5.846552 H         6 PHENYL      0.061758 
    108 H50        12.672860    9.146189    7.214665 H         6 PHENYL      0.061767 
    109 H51        11.915975   11.416768    6.658253 H         6 PHENYL      0.062070 
    110 H52        -0.086827   14.537493   12.849062 H         8 <8>         0.061817 
    111 H53         1.298134   15.382365   14.763093 H         8 <8>         0.063671 
    112 H54         8.991523   15.158137   13.981555 H         8 <8>         0.042907 
    113 H55         7.984472   14.430537   12.674528 H         8 <8>         0.042907 
    114 H56         7.343661   14.582705   14.314167 H         8 <8>         0.042907 
@<TRIPOS>BOND
     1   10    1 am   
     2    1    2 am   
     3    2    3 1    
     4    3    4 1    
     5    4    5 2    
     6    4    6 1    
     7    6    7 1    
     8    1    8 2    
     9    7    9 ar   
    10    5    9 1    
    11   10   11 1    
    12   11   12 1    
    13   12   13 am   
    14   13   14 1    
    15   14   15 1    
    16   15   16 1    
    17   16   17 1    
    18   17   18 am   
    19   18   19 1    
    20   19   20 1    
    21   20   21 am   
    22   21   22 1    
    23   23   24 ar   
    24   23   28 ar   
    25   28   27 ar   
    26   27   26 ar   
    27   26   25 ar   
    28   25   24 ar   
    29   22   23 1    
    30    9   29 ar   
    31   12   30 2    
    32   17   31 2    
    33   20   32 2    
    34   14   33 1    
    35   34   35 ar   
    36   34   39 ar   
    37   39   38 ar   
    38   38   37 ar   
    39   37   36 ar   
    40   36   35 ar   
    41   33   34 1    
    42   40   41 1    
    43   40   42 1    
    44   11   40 1    
    45   43   44 1    
    46   43   45 1    
    47   19   43 1    
    48   16   47 1    
    49   15   46 1    
    50   49   47 1    
    51   29   48 ar   
    52   50   51 ar   
    53   50   55 ar   
    54   55   54 ar   
    55   54   53 ar   
    56   53   52 ar   
    57   52   51 ar   
    58   49   50 1    
    59   48   56 ar   
    60   56   57 ar   
    61    7   57 ar   
    62    2   58 1    
    63    3   59 1    
    64    3   60 1    
    65    6   61 1    
    66   10   62 1    
    67   11   63 1    
    68   13   64 1    
    69   14   65 1    
    70   15   66 1    
    71   16   67 1    
    72   18   68 1    
    73   19   69 1    
    74   21   70 1    
    75   22   71 1    
    76   22   72 1    
    77   24   73 1    
    78   25   74 1    
    79   26   75 1    
    80   27   76 1    
    81   28   77 1    
    82   29   78 1    
    83   33   79 1    
    84   33   80 1    
    85   35   81 1    
    86   36   82 1    
    87   37   83 1    
    88   38   84 1    
    89   39   85 1    
    90   40   86 1    
    91   41   87 1    
    92   41   88 1    
    93   41   89 1    
    94   42   90 1    
    95   42   91 1    
    96   42   92 1    
    97   43   93 1    
    98   44   94 1    
    99   44   95 1    
   100   44   96 1    
   101   45   97 1    
   102   45   98 1    
   103   45   99 1    
   104   46  100 1    
   105   47  101 1    
   106   48  102 1    
   107   49  103 1    
   108   49  104 1    
   109   51  105 1    
   110   52  106 1    
   111   53  107 1    
   112   54  108 1    
   113   55  109 1    
   114   56  110 1    
   115   57  111 1    
   116   58  112 1    
   117   58  113 1    
   118   58  114 1    
@<TRIPOS>SUBSTRUCTURE
     1 PHENYL     23 PERM              0 ****  ****    1  
     2 PHENYL     34 PERM              0 ****  ****    1  
     3 ISOPROPYL    40 PERM              0 ****  ****    1  
     4 ISOPROPYL    43 PERM              0 ****  ****    1  
     5 OH         46 PERM              0 ****  ****    1  
     6 PHENYL     50 PERM              0 ****  ****    1  
     7 ****       49 PERM              0 ****  ****    2 ROOT 
     8 ****       10 PERM              0 ****  ****    6  
@<TRIPOS>NORMAL
@<TRIPOS>FF_PBC
FORCE_FIELD_SETUP_FEATURE Force Field Setup information
v1.0  0 0.000000 0.000000 0.000000 0.000000 0.000000 0.000000 NONE 0 0 0 0 1 0 0 0 0 0 0 0 0
