#	Name:			Sc2
#	Creating user name:	nsalim
#	Creation time:		Wed Feb  9 13:46:50 2005

#	Modifying user name:	nsalim
#	Modification time:	Wed Feb  9 13:54:44 2005

@<TRIPOS>MOLECULE
Sc2
  106   109     8     1     0
SMALL
GASTEIGER
INVALID_CHARGES

@<TRIPOS>ATOM
      1 C1          6.889608   15.783371   15.639322 C.ar      1 PHENYL     -0.021282 
      2 C           6.084511   16.178969   16.714491 C.ar      1 PHENYL     -0.056372 
      3 C           6.151241   15.502822   17.936452 C.ar      1 PHENYL     -0.061429 
      4 C           7.019710   14.418704   18.089557 C.ar      1 PHENYL     -0.061740 
      5 C           7.813425   14.007835   17.015207 C.ar      1 PHENYL     -0.061429 
      6 C           7.742525   14.683791   15.793371 C.ar      1 PHENYL     -0.056372 
      7 C7          6.836462   16.550378   14.310333 C.3       1 PHENYL      0.083653 
      8 O8          8.105258   16.443420   13.633549 O.3       1 PHENYL     -0.295140 
      9 C9          8.167845   17.109817   12.472122 C.2       1 PHENYL      0.353139 
     10 N10         9.378405   16.994541   11.887208 N.am      1 PHENYL     -0.279805 
     11 C11         9.692990   17.698723   10.640908 C.3       1 PHENYL      0.103775 
     12 C12        10.601233   16.835678    9.785045 C.2       1 PHENYL      0.233986 
     13 N13        10.940646   17.264778    8.542313 N.am      1 PHENYL     -0.308096 
     14 C14        11.839267   16.531631    7.635129 C.3       1 PHENYL      0.054523 
     15 C15        10.930285   15.955554    6.504750 C.3       1 PHENYL      0.093915 
     16 C16        11.692758   15.246731    5.349772 C.3       1 PHENYL      0.109174 
     17 C17        10.945720   15.358269    4.039671 C.2       1 PHENYL      0.229165 
     18 N18        11.335815   16.288717    3.135570 N.am      1 PHENYL     -0.302772 
     19 C19        10.768795   16.277115    1.784675 C.3       1 PHENYL      0.101679 
     20 C20        11.497214   15.223951    0.975910 C.2       1 PHENYL      0.233870 
     21 N21        10.968973   14.803452   -0.196914 N.am      1 PHENYL     -0.309666 
     22 C22        11.654230   13.784405   -0.989741 C.3       1 PHENYL      0.036886 
     23 C          11.393579   14.015805   -2.484081 C.ar      2 PHENYL     -0.030323 
     24 C          10.902180   12.995058   -3.306325 C.ar      2 PHENYL     -0.057077 
     25 C          10.678137   13.232625   -4.665782 C.ar      2 PHENYL     -0.061452 
     26 C          10.942766   14.492614   -5.209839 C.ar      2 PHENYL     -0.061740 
     27 C          11.431132   15.515350   -4.392025 C.ar      2 PHENYL     -0.061452 
     28 C          11.655620   15.275719   -3.033274 C.ar      2 PHENYL     -0.057077 
     29 O29         7.233150   17.749344   12.016200 O.2       1 PHENYL     -0.241337 
     30 O30        10.984227   15.787436   10.276404 O.2       1 PHENYL     -0.273760 
     31 O31        10.022294   14.590498    3.821493 O.2       1 PHENYL     -0.274497 
     32 O32        12.552723   14.783940    1.404339 O.2       1 PHENYL     -0.273762 
     33 C33        12.799787   15.501914    8.311561 C.3       1 PHENYL     -0.006732 
     34 C          14.024655   15.042876    7.493667 C.ar      3 PHENYL     -0.045530 
     35 C          14.330799   13.678684    7.395844 C.ar      3 PHENYL     -0.058512 
     36 C          15.365830   13.232174    6.569940 C.ar      3 PHENYL     -0.061501 
     37 C          16.121591   14.151984    5.839907 C.ar      3 PHENYL     -0.061742 
     38 C          15.877835   15.518957    5.992489 C.ar      3 PHENYL     -0.061501 
     39 C          14.865020   15.960329    6.849419 C.ar      3 PHENYL     -0.058512 
     40 C1         10.361470   19.071771   10.963270 C.3       4 ISOPROPYL   -0.019657 
     41 C2         11.733621   18.892929   11.671114 C.3       4 ISOPROPYL   -0.060524 
     42 C3          9.431981   19.971172   11.824458 C.3       4 ISOPROPYL   -0.060524 
     43 C1         10.822177   17.663774    1.069711 C.3       5 ISOPROPYL   -0.019731 
     44 C2         12.264727   18.101675    0.684194 C.3       5 ISOPROPYL   -0.060525 
     45 C3         10.132263   18.754003    1.935852 C.3       5 ISOPROPYL   -0.060525 
     46 O1         10.123072   17.028453    5.975255 O.3       6 OH         -0.388368 
     47 S47        11.921313   13.465252    5.686778 S.3       1 PHENYL     -0.140723 
     48 H1          5.404718   17.015337   16.598621 H         1 PHENYL      0.000000 
     49 C49        12.774313   12.947411    4.157714 C.3       8 <8>         0.019598 
     50 C          13.362468   11.543532    4.344031 C.ar      7 PHENYL     -0.037536 
     51 C          14.695222   11.276021    4.008992 C.ar      7 PHENYL     -0.057786 
     52 C          15.232598   10.001370    4.210324 C.ar      7 PHENYL     -0.061476 
     53 C          14.435620    8.981210    4.736619 C.ar      7 PHENYL     -0.061741 
     54 C          13.098750    9.236839    5.053348 C.ar      7 PHENYL     -0.061476 
     55 C          12.563435   10.511995    4.849934 C.ar      7 PHENYL     -0.057786 
     56 H2          5.528975   15.819700   18.765565 H         1 PHENYL      0.000000 
     57 H3          7.077516   13.898143   19.038625 H         1 PHENYL      0.000000 
     58 H4          8.484641   13.164321   17.129270 H         1 PHENYL      0.000000 
     59 H5          8.352031   14.354309   14.959704 H         1 PHENYL      0.000000 
     60 H6          6.616573   17.609777   14.508630 H         1 PHENYL      0.000000 
     61 H7          6.046357   16.124668   13.674325 H         1 PHENYL      0.000000 
     62 H8         10.075028   16.416921   12.312733 H         1 PHENYL      0.000000 
     63 H9          8.759383   17.883140   10.089212 H         1 PHENYL      0.000000 
     64 H10        10.556919   18.131550    8.223786 H         1 PHENYL      0.000000 
     65 H11        12.500412   17.276663    7.168422 H         1 PHENYL      0.000000 
     66 H12        10.264055   15.209556    6.962598 H         1 PHENYL      0.000000 
     67 H13        12.678670   15.723090    5.244601 H         1 PHENYL      0.000000 
     68 H14        12.009739   16.982379    3.389854 H         1 PHENYL      0.000000 
     69 H15         9.710530   15.987494    1.863378 H         1 PHENYL      0.000000 
     70 H16        10.106634   15.191324   -0.522377 H         1 PHENYL      0.000000 
     71 H17        11.280681   12.789721   -0.705020 H         1 PHENYL      0.000000 
     72 H18        12.735703   13.839169   -0.796306 H         1 PHENYL      0.000000 
     73 H19        10.694627   12.016986   -2.887575 H         2 PHENYL      0.000000 
     74 H20        10.298696   12.438581   -5.298691 H         2 PHENYL      0.000000 
     75 H21        10.769554   14.676202   -6.264044 H         2 PHENYL      0.000000 
     76 H22        11.635719   16.493883   -4.811159 H         2 PHENYL      0.000000 
     77 H23        12.034934   16.070650   -2.401402 H         2 PHENYL      0.000000 
     78 H24        12.208552   14.606564    8.554026 H         1 PHENYL      0.000000 
     79 H25        13.173237   15.957417    9.240567 H         1 PHENYL      0.000000 
     80 H26        13.756566   12.959762    7.968962 H         3 PHENYL      0.000000 
     81 H27        15.581933   12.172510    6.495998 H         3 PHENYL      0.000000 
     82 H28        16.892030   13.807588    5.159561 H         3 PHENYL      0.000000 
     83 H29        16.475255   16.239176    5.445288 H         3 PHENYL      0.000000 
     84 H30        14.728668   17.022590    7.016950 H         3 PHENYL      0.000000 
     85 H31        10.539425   19.586578   10.007599 H         4 ISOPROPYL    0.000000 
     86 H32        12.011762   17.828678   11.668107 H         4 ISOPROPYL    0.000000 
     87 H33        11.660018   19.249771   12.709018 H         4 ISOPROPYL    0.000000 
     88 H34        12.500091   19.473781   11.137134 H         4 ISOPROPYL    0.000000 
     89 H35         9.363921   20.970209   11.369164 H         4 ISOPROPYL    0.000000 
     90 H36         9.844774   20.058503   12.840319 H         4 ISOPROPYL    0.000000 
     91 H37         8.429315   19.521440   11.873487 H         4 ISOPROPYL    0.000000 
     92 H38        10.250839   17.568869    0.134529 H         5 ISOPROPYL    0.000000 
     93 H39        12.758195   17.290246    0.129151 H         5 ISOPROPYL    0.000000 
     94 H40        12.837201   18.322411    1.597183 H         5 ISOPROPYL    0.000000 
     95 H41        12.218456   19.001899    0.053753 H         5 ISOPROPYL    0.000000 
     96 H42        10.165309   19.717835    1.406763 H         5 ISOPROPYL    0.000000 
     97 H43        10.658293   18.845408    2.897589 H         5 ISOPROPYL    0.000000 
     98 H44         9.084867   18.470437    2.116275 H         5 ISOPROPYL    0.000000 
     99 H45        10.658236   17.582787    5.419546 H         6 OH          0.000000 
    100 H46        13.584735   13.656454    3.933046 H         8 <8>         0.000000 
    101 H47        12.056186   12.935313    3.324559 H         8 <8>         0.000000 
    102 H48        15.313977   12.061850    3.591055 H         7 PHENYL      0.000000 
    103 H49        16.268215    9.804125    3.958039 H         7 PHENYL      0.000000 
    104 H50        14.853327    7.994150    4.898757 H         7 PHENYL      0.000000 
    105 H51        12.476722    8.446078    5.456875 H         7 PHENYL      0.000000 
    106 H52        11.522747   10.703055    5.085561 H         7 PHENYL      0.000000 
@<TRIPOS>BOND
     1    1    2 ar   
     2    1    6 ar   
     3    6    5 ar   
     4    5    4 ar   
     5    4    3 ar   
     6    3    2 ar   
     7    1    7 1    
     8    7    8 1    
     9    8    9 1    
    10    9   10 am   
    11   10   11 1    
    12   11   12 1    
    13   12   13 am   
    14   13   14 1    
    15   14   15 1    
    16   15   16 1    
    17   16   17 1    
    18   17   18 am   
    19   18   19 1    
    20   19   20 1    
    21   20   21 am   
    22   21   22 1    
    23   23   24 ar   
    24   23   28 ar   
    25   28   27 ar   
    26   27   26 ar   
    27   26   25 ar   
    28   25   24 ar   
    29   22   23 1    
    30    9   29 2    
    31   12   30 2    
    32   17   31 2    
    33   20   32 2    
    34   14   33 1    
    35   34   35 ar   
    36   34   39 ar   
    37   39   38 ar   
    38   38   37 ar   
    39   37   36 ar   
    40   36   35 ar   
    41   33   34 1    
    42   40   41 1    
    43   40   42 1    
    44   11   40 1    
    45   43   44 1    
    46   43   45 1    
    47   19   43 1    
    48   16   47 1    
    49   15   46 1    
    50   49   47 1    
    51    2   48 1    
    52   50   51 ar   
    53   50   55 ar   
    54   55   54 ar   
    55   54   53 ar   
    56   53   52 ar   
    57   52   51 ar   
    58   49   50 1    
    59    3   56 1    
    60    4   57 1    
    61    5   58 1    
    62    6   59 1    
    63    7   60 1    
    64    7   61 1    
    65   10   62 1    
    66   11   63 1    
    67   13   64 1    
    68   14   65 1    
    69   15   66 1    
    70   16   67 1    
    71   18   68 1    
    72   19   69 1    
    73   21   70 1    
    74   22   71 1    
    75   22   72 1    
    76   24   73 1    
    77   25   74 1    
    78   26   75 1    
    79   27   76 1    
    80   28   77 1    
    81   33   78 1    
    82   33   79 1    
    83   35   80 1    
    84   36   81 1    
    85   37   82 1    
    86   38   83 1    
    87   39   84 1    
    88   40   85 1    
    89   41   86 1    
    90   41   87 1    
    91   41   88 1    
    92   42   89 1    
    93   42   90 1    
    94   42   91 1    
    95   43   92 1    
    96   44   93 1    
    97   44   94 1    
    98   44   95 1    
    99   45   96 1    
   100   45   97 1    
   101   45   98 1    
   102   46   99 1    
   103   49  100 1    
   104   49  101 1    
   105   51  102 1    
   106   52  103 1    
   107   53  104 1    
   108   54  105 1    
   109   55  106 1    
@<TRIPOS>SUBSTRUCTURE
     1 PHENYL      1 PERM              0 ****  ****    6  
     2 PHENYL     23 PERM              0 ****  ****    1  
     3 PHENYL     34 PERM              0 ****  ****    1  
     4 ISOPROPYL    40 PERM              0 ****  ****    1  
     5 ISOPROPYL    43 PERM              0 ****  ****    1  
     6 OH         46 PERM              0 ****  ****    1  
     7 PHENYL     50 PERM              0 ****  ****    1  
     8 ****       49 PERM              0 ****  ****    2 ROOT 
@<TRIPOS>NORMAL
@<TRIPOS>FF_PBC
FORCE_FIELD_SETUP_FEATURE Force Field Setup information
v1.0  0 0.000000 0.000000 0.000000 0.000000 0.000000 0.000000 NONE 0 0 0 0 1 0 0 0 0 0 0 0 0
