#	Name:			Sc20
#	Creating user name:	nsalim
#	Creation time:		Wed Feb  9 13:55:33 2005

#	Modifying user name:	nsalim
#	Modification time:	Wed Feb  9 13:55:45 2005

@<TRIPOS>MOLECULE
Sc20
   99   101     7     1     0
SMALL
GASTEIGER


@<TRIPOS>ATOM
      1 C1          6.882059   15.932426   15.584034 C.ar      1 PHENYL     -0.021282 
      2 C           6.179556   16.413434   16.695732 C.ar      1 PHENYL     -0.056372 
      3 C           6.226225   15.728547   17.913755 C.ar      1 PHENYL     -0.061429 
      4 C           6.971499   14.551783   18.026774 C.ar      1 PHENYL     -0.061740 
      5 C           7.663245   14.058628   16.917167 C.ar      1 PHENYL     -0.061429 
      6 C           7.612877   14.744052   15.699669 C.ar      1 PHENYL     -0.056372 
      7 C7          6.854769   16.697489   14.253482 C.3       1 PHENYL      0.083653 
      8 O8          8.113444   16.520528   13.572491 O.3       1 PHENYL     -0.295140 
      9 C9          8.200940   17.167053   12.401263 C.2       1 PHENYL      0.353139 
     10 N10         9.402762   16.990715   11.813568 N.am      1 PHENYL     -0.279805 
     11 C11         9.741204   17.662362   10.555643 C.3       1 PHENYL      0.103775 
     12 C12        10.628331   16.760600    9.717170 C.2       1 PHENYL      0.233986 
     13 N13        10.965642   17.154382    8.461643 N.am      1 PHENYL     -0.308078 
     14 C14        11.870134   16.406301    7.571111 C.3       1 PHENYL      0.054959 
     15 C15        10.988892   15.893621    6.390139 C.3       1 PHENYL      0.097537 
     16 C16        11.774164   15.209473    5.231779 C.3       1 PHENYL      0.112915 
     17 C17        10.995158   15.339703    3.938015 C.2       1 PHENYL      0.233282 
     18 N18        11.284487   16.341008    3.072225 N.am      1 PHENYL     -0.301688 
     19 C19        10.636131   16.383884    1.757334 C.3       1 PHENYL      0.110917 
     20 C20        11.423369   15.457076    0.842325 C.2       1 PHENYL      0.282885 
     21 O21        10.892716   14.762745   -0.184578 O.3       1 PHENYL     -0.314071 
     22 C22         9.459618   14.731611   -0.329405 C.3       1 PHENYL      0.054304 
     23 C23         9.153813   13.896525   -1.596567 C.3       1 PHENYL     -0.040979 
     24 H1          5.591954   17.322969   16.619822 H         1 PHENYL      0.062101 
     25 H2          5.683272   16.110722   18.773069 H         1 PHENYL      0.061767 
     26 H3          7.012590   14.021956   18.973674 H         1 PHENYL      0.061758 
     27 H4          8.240188   13.142515   17.000994 H         1 PHENYL      0.061767 
     28 H5          8.146234   14.345965   14.842196 H         1 PHENYL      0.062101 
     29 O29         7.293494   17.840178   11.938957 O.2       1 PHENYL     -0.241337 
     30 O30        10.995963   15.719599   10.235015 O.2       1 PHENYL     -0.273760 
     31 O31        10.129457   14.511061    3.705139 O.2       1 PHENYL     -0.273987 
     32 O32        12.622576   15.332692    1.034402 O.2       1 PHENYL     -0.262891 
     33 C33        12.754591   15.312956    8.247825 C.3       1 PHENYL     -0.006715 
     34 C          13.976356   14.786436    7.466508 C.ar      2 PHENYL     -0.045529 
     35 C          14.224721   13.408006    7.418686 C.ar      2 PHENYL     -0.058512 
     36 C          15.317652   12.896782    6.713077 C.ar      2 PHENYL     -0.061501 
     37 C          16.156974   13.759594    6.005390 C.ar      2 PHENYL     -0.061742 
     38 C          15.932841   15.137137    6.062120 C.ar      2 PHENYL     -0.061501 
     39 C          14.875069   15.646712    6.821424 C.ar      2 PHENYL     -0.058512 
     40 C1         10.452817   19.019681   10.852857 C.3       3 ISOPROPYL   -0.019657 
     41 C2         11.808365   18.810780   11.584105 C.3       3 ISOPROPYL   -0.060524 
     42 C3          9.545738   19.974423   11.677617 C.3       3 ISOPROPYL   -0.060524 
     43 C1         10.556990   17.831155    1.170760 C.3       4 ISOPROPYL   -0.018967 
     44 C2         11.935246   18.406168    0.732990 C.3       4 ISOPROPYL   -0.060500 
     45 C3          9.861046   18.793822    2.173611 C.3       4 ISOPROPYL   -0.060500 
     46 O1         10.218896   17.004074    5.882017 O.3       5 OH         -0.387906 
     47 N47        12.039777   13.771415    5.494000 N.3       1 PHENYL     -0.299550 
     48 H6          6.682670   17.768685   14.450765 H         1 PHENYL      0.061655 
     49 C49        12.898213   13.130128    4.465450 C.3       7 <7>         0.021997 
     50 C          13.383211   11.707269    4.787600 C.ar      6 PHENYL     -0.033558 
     51 C          14.431801   11.175655    4.026547 C.ar      6 PHENYL     -0.057350 
     52 C          14.938416    9.901534    4.297050 C.ar      6 PHENYL     -0.061461 
     53 C          14.387697    9.137152    5.328423 C.ar      6 PHENYL     -0.061741 
     54 C          13.328237    9.650745    6.080581 C.ar      6 PHENYL     -0.061461 
     55 C          12.827164   10.927684    5.809873 C.ar      6 PHENYL     -0.057350 
     56 H7          6.020825   16.298218   13.653876 H         1 PHENYL      0.061655 
     57 H8         10.097122   16.409185   12.243344 H         1 PHENYL      0.151734 
     58 H9          8.832760   17.843703    9.957056 H         1 PHENYL      0.059775 
     59 H10        10.560106   17.988484    8.080830 H         1 PHENYL      0.149127 
     60 H11        12.553267   17.163443    7.158843 H         1 PHENYL      0.052746 
     61 H12        10.249272   15.183625    6.792327 H         1 PHENYL      0.063235 
     62 H13        12.730472   15.740205    5.116471 H         1 PHENYL      0.058313 
     63 H14        12.013254   16.994004    3.269659 H         1 PHENYL      0.149532 
     64 H15         9.596605   16.049566    1.890339 H         1 PHENYL      0.060510 
     65 H16         9.023539   15.732466   -0.471189 H         1 PHENYL      0.056304 
     66 H17         8.987627   14.231898    0.533600 H         1 PHENYL      0.056304 
     67 H18         9.615321   14.369775   -2.477709 H         1 PHENYL      0.025189 
     68 H19         8.067024   13.822483   -1.761216 H         1 PHENYL      0.025189 
     69 H20         9.566617   12.881246   -1.486805 H         1 PHENYL      0.025189 
     70 H21        12.101499   14.469170    8.516734 H         1 PHENYL      0.033193 
     71 H22        13.191545   15.734858    9.166299 H         1 PHENYL      0.033193 
     72 H23        13.571232   12.715338    7.937996 H         2 PHENYL      0.062030 
     73 H24        15.513889   11.828650    6.712582 H         2 PHENYL      0.061766 
     74 H25        16.978469   13.361351    5.417848 H         2 PHENYL      0.061758 
     75 H26        16.585925   15.812962    5.518282 H         2 PHENYL      0.061766 
     76 H27        14.775468   16.722004    6.906363 H         2 PHENYL      0.062030 
     77 H28        10.665031   19.528615    9.896857 H         3 ISOPROPYL    0.031803 
     78 H29        12.481500   18.172862   10.990832 H         3 ISOPROPYL    0.023302 
     79 H30        11.653887   18.340925   12.566950 H         3 ISOPROPYL    0.023302 
     80 H31        12.307764   19.779763   11.740537 H         3 ISOPROPYL    0.023302 
     81 H32        10.026325   20.959755   11.784125 H         3 ISOPROPYL    0.023302 
     82 H33         9.365004   19.573284   12.686093 H         3 ISOPROPYL    0.023302 
     83 H34         8.577713   20.117441   11.172644 H         3 ISOPROPYL    0.023302 
     84 H35         9.934703   17.803458    0.260041 H         4 ISOPROPYL    0.031827 
     85 H36        12.401129   17.769840   -0.034963 H         4 ISOPROPYL    0.023303 
     86 H37        12.630159   18.497133    1.579626 H         4 ISOPROPYL    0.023303 
     87 H38        11.801531   19.409177    0.297900 H         4 ISOPROPYL    0.023303 
     88 H39         9.714253   19.784586    1.715815 H         4 ISOPROPYL    0.023303 
     89 H40        10.466981   18.922288    3.082368 H         4 ISOPROPYL    0.023303 
     90 H41         8.874724   18.400297    2.464415 H         4 ISOPROPYL    0.023303 
     91 H42        10.750354   17.696042    5.501972 H         5 OH          0.209942 
     92 H43        11.093855   13.246638    5.555041 H         1 PHENYL      0.123028 
     93 H44        13.801220   13.745916    4.329823 H         7 <7>         0.047363 
     94 H45        12.376505   13.076248    3.495904 H         7 <7>         0.047363 
     95 H46        14.862265   11.755741    3.216179 H         6 PHENYL      0.062070 
     96 H47        15.759209    9.505999    3.706332 H         6 PHENYL      0.061767 
     97 H48        14.780877    8.148244    5.543726 H         6 PHENYL      0.061758 
     98 H49        12.893623    9.055525    6.878036 H         6 PHENYL      0.061767 
     99 H50        12.004840   11.297448    6.409538 H         6 PHENYL      0.062070 
@<TRIPOS>BOND
     1    1    2 ar   
     2    1    6 ar   
     3    6    5 ar   
     4    5    4 ar   
     5    4    3 ar   
     6    3    2 ar   
     7    1    7 1    
     8    7    8 1    
     9    8    9 1    
    10    9   10 am   
    11   10   11 1    
    12   11   12 1    
    13   12   13 am   
    14   13   14 1    
    15   14   15 1    
    16   15   16 1    
    17   16   17 1    
    18   17   18 am   
    19   18   19 1    
    20   19   20 1    
    21   20   21 1    
    22   21   22 1    
    23   22   23 1    
    24    2   24 1    
    25    3   25 1    
    26    4   26 1    
    27    5   27 1    
    28    6   28 1    
    29    7   48 1    
    30    9   29 2    
    31   12   30 2    
    32   17   31 2    
    33   20   32 2    
    34   14   33 1    
    35   34   35 ar   
    36   34   39 ar   
    37   39   38 ar   
    38   38   37 ar   
    39   37   36 ar   
    40   36   35 ar   
    41   33   34 1    
    42   40   41 1    
    43   40   42 1    
    44   11   40 1    
    45   43   44 1    
    46   43   45 1    
    47   19   43 1    
    48   16   47 1    
    49   15   46 1    
    50   49   47 1    
    51    7   56 1    
    52   50   51 ar   
    53   50   55 ar   
    54   55   54 ar   
    55   54   53 ar   
    56   53   52 ar   
    57   52   51 ar   
    58   49   50 1    
    59   10   57 1    
    60   11   58 1    
    61   13   59 1    
    62   14   60 1    
    63   15   61 1    
    64   16   62 1    
    65   18   63 1    
    66   19   64 1    
    67   22   65 1    
    68   22   66 1    
    69   23   67 1    
    70   23   68 1    
    71   23   69 1    
    72   33   70 1    
    73   33   71 1    
    74   35   72 1    
    75   36   73 1    
    76   37   74 1    
    77   38   75 1    
    78   39   76 1    
    79   40   77 1    
    80   41   78 1    
    81   41   79 1    
    82   41   80 1    
    83   42   81 1    
    84   42   82 1    
    85   42   83 1    
    86   43   84 1    
    87   44   85 1    
    88   44   86 1    
    89   44   87 1    
    90   45   88 1    
    91   45   89 1    
    92   45   90 1    
    93   46   91 1    
    94   47   92 1    
    95   49   93 1    
    96   49   94 1    
    97   51   95 1    
    98   52   96 1    
    99   53   97 1    
   100   54   98 1    
   101   55   99 1    
@<TRIPOS>SUBSTRUCTURE
     1 PHENYL      1 PERM              0 ****  ****    5  
     2 PHENYL     34 PERM              0 ****  ****    1  
     3 ISOPROPYL    40 PERM              0 ****  ****    1  
     4 ISOPROPYL    43 PERM              0 ****  ****    1  
     5 OH         46 PERM              0 ****  ****    1  
     6 PHENYL     50 PERM              0 ****  ****    1  
     7 ****       49 PERM              0 ****  ****    2 ROOT 
@<TRIPOS>NORMAL
@<TRIPOS>FF_PBC
FORCE_FIELD_SETUP_FEATURE Force Field Setup information
v1.0  0 0.000000 0.000000 0.000000 0.000000 0.000000 0.000000 NONE 0 0 0 0 1 0 0 0 0 0 0 0 0
