#	Name:			Sc21
#	Creating user name:	nsalim
#	Creation time:		Wed Feb  9 13:56:20 2005

#	Modifying user name:	nsalim
#	Modification time:	Wed Feb  9 13:58:09 2005

@<TRIPOS>MOLECULE
Sc21
  106   108     7     1     0
SMALL
GASTEIGER


@<TRIPOS>ATOM
      1 C1          6.621955   15.710487   15.348292 C.ar      1 PHENYL     -0.021282 
      2 C           5.949490   16.182123   16.482441 C.ar      1 PHENYL     -0.056372 
      3 C           5.941745   15.432873   17.662933 C.ar      1 PHENYL     -0.061429 
      4 C           6.600947   14.201592   17.715076 C.ar      1 PHENYL     -0.061740 
      5 C           7.261080   13.718494   16.581913 C.ar      1 PHENYL     -0.061429 
      6 C           7.265898   14.468709   15.402135 C.ar      1 PHENYL     -0.056372 
      7 C7          6.660758   16.539497   14.057091 C.3       1 PHENYL      0.083653 
      8 O8          7.949083   16.371381   13.432103 O.3       1 PHENYL     -0.295140 
      9 C9          8.105690   17.070081   12.298831 C.2       1 PHENYL      0.353139 
     10 N10         9.330621   16.895822   11.760790 N.am      1 PHENYL     -0.279805 
     11 C11         9.740432   17.616571   10.552182 C.3       1 PHENYL      0.103775 
     12 C12        10.630338   16.727259    9.704801 C.2       1 PHENYL      0.233986 
     13 N13        11.022953   17.167739    8.482107 N.am      1 PHENYL     -0.308078 
     14 C14        11.904791   16.413908    7.576076 C.3       1 PHENYL      0.054959 
     15 C15        10.996814   15.933020    6.403233 C.3       1 PHENYL      0.097537 
     16 C16        11.754255   15.235541    5.236651 C.3       1 PHENYL      0.112915 
     17 C17        10.960038   15.378103    3.954793 C.2       1 PHENYL      0.233264 
     18 N18        11.273617   16.352657    3.068020 N.am      1 PHENYL     -0.302393 
     19 C19        10.653227   16.335963    1.741675 C.3       1 PHENYL      0.101700 
     20 C20        11.250492   15.179413    0.964320 C.2       1 PHENYL      0.234000 
     21 N21        10.601161   14.712549   -0.130064 N.am      1 PHENYL     -0.309027 
     22 C22        11.097386   13.561287   -0.897038 C.3       1 PHENYL      0.026218 
     23 C23        10.184155   13.362118   -2.143135 C.3       1 PHENYL     -0.044232 
     24 C24        11.013582   12.286764   -0.010615 C.3       1 PHENYL     -0.044232 
     25 C25        12.553255   13.784998   -1.399889 C.3       1 PHENYL     -0.044232 
     26 H1          5.428022   17.133758   16.453902 H         1 PHENYL      0.062101 
     27 H2          5.423319   15.807517   18.540590 H         1 PHENYL      0.061767 
     28 H3          6.599804   13.621613   18.633302 H         1 PHENYL      0.061758 
     29 O29         7.233990   17.783497   11.827214 O.2       1 PHENYL     -0.241337 
     30 O30        10.948688   15.651532   10.182822 O.2       1 PHENYL     -0.273760 
     31 O31        10.062291   14.577470    3.745501 O.2       1 PHENYL     -0.273988 
     32 O32        12.303476   14.713328    1.368002 O.2       1 PHENYL     -0.273756 
     33 C33        12.770559   15.292931    8.231357 C.3       1 PHENYL     -0.006715 
     34 C          13.980752   14.762253    7.434040 C.ar      2 PHENYL     -0.045529 
     35 C          14.206231   13.381242    7.356409 C.ar      2 PHENYL     -0.058512 
     36 C          15.273069   12.865117    6.615083 C.ar      2 PHENYL     -0.061501 
     37 C          16.117687   13.728136    5.914445 C.ar      2 PHENYL     -0.061742 
     38 C          15.925365   15.108032    6.011823 C.ar      2 PHENYL     -0.061501 
     39 C          14.890028   15.619817    6.800078 C.ar      2 PHENYL     -0.058512 
     40 C1         10.476217   18.936449   10.942642 C.3       3 ISOPROPYL   -0.019657 
     41 C2         11.798464   18.653623   11.709008 C.3       3 ISOPROPYL   -0.060524 
     42 C3          9.563030   19.872055   11.782538 C.3       3 ISOPROPYL   -0.060524 
     43 C1         10.788883   17.672960    0.947271 C.3       4 ISOPROPYL   -0.019730 
     44 C2         12.253189   17.984073    0.524318 C.3       4 ISOPROPYL   -0.060525 
     45 C3         10.182870   18.858058    1.749324 C.3       4 ISOPROPYL   -0.060525 
     46 O1         10.252223   17.066266    5.906638 O.3       5 OH         -0.387906 
     47 N47        12.000782   13.792053    5.490189 N.3       1 PHENYL     -0.299550 
     48 H4          7.770548   12.760150   16.618131 H         1 PHENYL      0.061767 
     49 C49        12.812011   13.139121    4.430786 C.3       7 <7>         0.021997 
     50 C          13.265885   11.697762    4.711161 C.ar      6 PHENYL     -0.033558 
     51 C          14.252821   11.142799    3.887139 C.ar      6 PHENYL     -0.057350 
     52 C          14.723692    9.845767    4.108944 C.ar      6 PHENYL     -0.061461 
     53 C          14.200463    9.084337    5.156674 C.ar      6 PHENYL     -0.061741 
     54 C          13.205352    9.624348    5.975430 C.ar      6 PHENYL     -0.061461 
     55 C          12.738559   10.923163    5.752114 C.ar      6 PHENYL     -0.057350 
     56 H5          7.774082   14.080414   14.524849 H         1 PHENYL      0.062101 
     57 H6          6.492398   17.603447   14.293450 H         1 PHENYL      0.061655 
     58 H7          5.851807   16.179318   13.400843 H         1 PHENYL      0.061655 
     59 H8          9.992599   16.279957   12.194565 H         1 PHENYL      0.151734 
     60 H9          8.862680   17.854148    9.928139 H         1 PHENYL      0.059775 
     61 H10        10.663859   18.035296    8.130965 H         1 PHENYL      0.149127 
     62 H11        12.599818   17.159297    7.162337 H         1 PHENYL      0.052746 
     63 H12        10.242757   15.240002    6.808286 H         1 PHENYL      0.063235 
     64 H13        12.717986   15.749078    5.106820 H         1 PHENYL      0.058313 
     65 H14        12.005032   17.005691    3.253748 H         1 PHENYL      0.149509 
     66 H15         9.574968   16.138046    1.862490 H         1 PHENYL      0.059702 
     67 H16         9.738160   15.136809   -0.407037 H         1 PHENYL      0.149252 
     68 H17        10.220193   14.257156   -2.783220 H         1 PHENYL      0.025005 
     69 H18         9.141256   13.196347   -1.832909 H         1 PHENYL      0.025005 
     70 H19        10.505682   12.494846   -2.740287 H         1 PHENYL      0.025005 
     71 H20        11.677897   12.358169    0.862406 H         1 PHENYL      0.025005 
     72 H21        11.301481   11.393008   -0.585149 H         1 PHENYL      0.025005 
     73 H22         9.983011   12.155322    0.352880 H         1 PHENYL      0.025005 
     74 H23        13.286096   13.779386   -0.581654 H         1 PHENYL      0.025005 
     75 H24        12.619205   14.753445   -1.918986 H         1 PHENYL      0.025005 
     76 H25        12.846444   12.989222   -2.102060 H         1 PHENYL      0.025005 
     77 H26        12.104568   14.452723    8.478267 H         1 PHENYL      0.033193 
     78 H27        13.207453   15.687256    9.162070 H         1 PHENYL      0.033193 
     79 H28        13.554580   12.690337    7.879737 H         2 PHENYL      0.062030 
     80 H29        15.444697   11.793293    6.581519 H         2 PHENYL      0.061766 
     81 H30        16.919176   13.328206    5.301038 H         2 PHENYL      0.061758 
     82 H31        16.585263   15.783899    5.476860 H         2 PHENYL      0.061766 
     83 H32        14.816132   16.694201    6.916128 H         2 PHENYL      0.062030 
     84 H33        10.736111   19.485862   10.021421 H         3 ISOPROPYL    0.031803 
     85 H34        12.475634   18.027749   11.107378 H         3 ISOPROPYL    0.023302 
     86 H35        11.596240   18.139476   12.660513 H         3 ISOPROPYL    0.023302 
     87 H36        12.316957   19.599326   11.932043 H         3 ISOPROPYL    0.023302 
     88 H37        10.064161   20.836879   11.958634 H         3 ISOPROPYL    0.023302 
     89 H38         9.333432   19.423732   12.760698 H         3 ISOPROPYL    0.023302 
     90 H39         8.619055   20.067338   11.250373 H         3 ISOPROPYL    0.023302 
     91 H40        10.203145   17.572844    0.015497 H         4 ISOPROPYL    0.031802 
     92 H41        12.671049   17.161799   -0.076580 H         4 ISOPROPYL    0.023302 
     93 H42        12.903321   18.144311    1.395868 H         4 ISOPROPYL    0.023302 
     94 H43        12.279363   18.898054   -0.089975 H         4 ISOPROPYL    0.023302 
     95 H44        10.205699   19.779680    1.146504 H         4 ISOPROPYL    0.023302 
     96 H45        10.747101   19.038746    2.676079 H         4 ISOPROPYL    0.023302 
     97 H46         9.135185   18.646801    2.014715 H         4 ISOPROPYL    0.023302 
     98 H47        10.797238   17.744075    5.519893 H         5 OH          0.209942 
     99 H48        11.048178   13.283484    5.580742 H         1 PHENYL      0.123028 
    100 H49        13.725195   13.733572    4.270215 H         7 <7>         0.047363 
    101 H50        12.257690   13.103981    3.479444 H         7 <7>         0.047363 
    102 H51        14.661369   11.722021    3.064822 H         6 PHENYL      0.062070 
    103 H52        15.495016    9.430179    3.467494 H         6 PHENYL      0.061767 
    104 H53        14.565163    8.076954    5.333226 H         6 PHENYL      0.061758 
    105 H54        12.793948    9.032609    6.787429 H         6 PHENYL      0.061767 
    106 H55        11.964959   11.314056    6.401337 H         6 PHENYL      0.062070 
@<TRIPOS>BOND
     1    1    2 ar   
     2    1    6 ar   
     3    6    5 ar   
     4    5    4 ar   
     5    4    3 ar   
     6    3    2 ar   
     7    1    7 1    
     8    7    8 1    
     9    8    9 1    
    10    9   10 am   
    11   10   11 1    
    12   11   12 1    
    13   12   13 am   
    14   13   14 1    
    15   14   15 1    
    16   15   16 1    
    17   16   17 1    
    18   17   18 am   
    19   18   19 1    
    20   19   20 1    
    21   20   21 am   
    22   21   22 1    
    23   22   23 1    
    24   22   24 1    
    25   22   25 1    
    26    2   26 1    
    27    3   27 1    
    28    4   28 1    
    29    5   48 1    
    30    9   29 2    
    31   12   30 2    
    32   17   31 2    
    33   20   32 2    
    34   14   33 1    
    35   34   35 ar   
    36   34   39 ar   
    37   39   38 ar   
    38   38   37 ar   
    39   37   36 ar   
    40   36   35 ar   
    41   33   34 1    
    42   40   41 1    
    43   40   42 1    
    44   11   40 1    
    45   43   44 1    
    46   43   45 1    
    47   19   43 1    
    48   16   47 1    
    49   15   46 1    
    50   49   47 1    
    51    6   56 1    
    52   50   51 ar   
    53   50   55 ar   
    54   55   54 ar   
    55   54   53 ar   
    56   53   52 ar   
    57   52   51 ar   
    58   49   50 1    
    59    7   57 1    
    60    7   58 1    
    61   10   59 1    
    62   11   60 1    
    63   13   61 1    
    64   14   62 1    
    65   15   63 1    
    66   16   64 1    
    67   18   65 1    
    68   19   66 1    
    69   21   67 1    
    70   23   68 1    
    71   23   69 1    
    72   23   70 1    
    73   24   71 1    
    74   24   72 1    
    75   24   73 1    
    76   25   74 1    
    77   25   75 1    
    78   25   76 1    
    79   33   77 1    
    80   33   78 1    
    81   35   79 1    
    82   36   80 1    
    83   37   81 1    
    84   38   82 1    
    85   39   83 1    
    86   40   84 1    
    87   41   85 1    
    88   41   86 1    
    89   41   87 1    
    90   42   88 1    
    91   42   89 1    
    92   42   90 1    
    93   43   91 1    
    94   44   92 1    
    95   44   93 1    
    96   44   94 1    
    97   45   95 1    
    98   45   96 1    
    99   45   97 1    
   100   46   98 1    
   101   47   99 1    
   102   49  100 1    
   103   49  101 1    
   104   51  102 1    
   105   52  103 1    
   106   53  104 1    
   107   54  105 1    
   108   55  106 1    
@<TRIPOS>SUBSTRUCTURE
     1 PHENYL      1 PERM              0 ****  ****    5  
     2 PHENYL     34 PERM              0 ****  ****    1  
     3 ISOPROPYL    40 PERM              0 ****  ****    1  
     4 ISOPROPYL    43 PERM              0 ****  ****    1  
     5 OH         46 PERM              0 ****  ****    1  
     6 PHENYL     50 PERM              0 ****  ****    1  
     7 ****       49 PERM              0 ****  ****    2 ROOT 
@<TRIPOS>NORMAL
@<TRIPOS>FF_PBC
FORCE_FIELD_SETUP_FEATURE Force Field Setup information
v1.0  0 0.000000 0.000000 0.000000 0.000000 0.000000 0.000000 NONE 0 0 0 0 1 0 0 0 0 0 0 0 0
