#	Name:			Sc22
#	Creating user name:	nsalim
#	Creation time:		Wed Feb  9 13:58:51 2005

#	Modifying user name:	nsalim
#	Modification time:	Wed Feb  9 13:59:00 2005

@<TRIPOS>MOLECULE
Sc22
  106   109     8     1     0
SMALL
GASTEIGER


@<TRIPOS>ATOM
      1 C1          6.491008   15.677032   15.231370 C.ar      1 PHENYL     -0.021282 
      2 C           5.832859   16.145724   16.374948 C.ar      1 PHENYL     -0.056372 
      3 C           5.788738   15.366993   17.535313 C.ar      1 PHENYL     -0.061429 
      4 C           6.396893   14.108992   17.557863 C.ar      1 PHENYL     -0.061740 
      5 C           7.043034   13.629495   16.415308 C.ar      1 PHENYL     -0.061429 
      6 C           7.084470   14.409591   15.255869 C.ar      1 PHENYL     -0.056372 
      7 C7          6.568954   16.535220   13.961357 C.3       1 PHENYL      0.083653 
      8 O8          7.861534   16.348055   13.350511 O.3       1 PHENYL     -0.295140 
      9 C9          8.051669   17.067742   12.235605 C.2       1 PHENYL      0.353139 
     10 N10         9.280510   16.876916   11.711718 N.am      1 PHENYL     -0.279805 
     11 C11         9.725391   17.614717   10.526356 C.3       1 PHENYL      0.103775 
     12 C12        10.609756   16.725217    9.672545 C.2       1 PHENYL      0.233986 
     13 N13        11.037492   17.184211    8.468717 N.am      1 PHENYL     -0.308078 
     14 C14        11.916766   16.425010    7.564038 C.3       1 PHENYL      0.054959 
     15 C15        11.010888   15.932726    6.394732 C.3       1 PHENYL      0.097537 
     16 C16        11.769450   15.216187    5.239016 C.3       1 PHENYL      0.112915 
     17 C17        10.979075   15.358617    3.954498 C.2       1 PHENYL      0.233264 
     18 N18        11.304263   16.325866    3.063973 N.am      1 PHENYL     -0.302393 
     19 C19        10.631489   16.364847    1.763537 C.3       1 PHENYL      0.101695 
     20 C20        11.172591   15.241766    0.903097 C.2       1 PHENYL      0.233914 
     21 N21        10.483084   14.849890   -0.192474 N.am      1 PHENYL     -0.308180 
     22 C22        11.018794   13.777393   -1.028408 C.3       1 PHENYL      0.053994 
     23 C          10.067469   13.407529   -2.170189 C.ar      8 PHENYL      0.058294 
     24 N24        10.472828   13.556059   -3.449439 N.ar      8 PHENYL     -0.258304 
     25 C           9.671779   13.241777   -4.488419 C.ar      8 PHENYL      0.027925 
     26 C           8.382126   12.751907   -4.263589 C.ar      8 PHENYL     -0.043575 
     27 C           7.934676   12.589110   -2.950085 C.ar      8 PHENYL     -0.058584 
     28 C           8.787081   12.918218   -1.893057 C.ar      8 PHENYL     -0.038845 
     29 O29         7.204964   17.812214   11.766843 O.2       1 PHENYL     -0.241337 
     30 O30        10.892301   15.630326   10.128874 O.2       1 PHENYL     -0.273760 
     31 O31        10.068855   14.570978    3.751763 O.2       1 PHENYL     -0.273988 
     32 O32        12.228841   14.713877    1.214133 O.2       1 PHENYL     -0.273761 
     33 C33        12.784984   15.312441    8.230598 C.3       1 PHENYL     -0.006715 
     34 C          14.009738   14.796323    7.446022 C.ar      2 PHENYL     -0.045529 
     35 C          14.249920   13.417963    7.367278 C.ar      2 PHENYL     -0.058512 
     36 C          15.322641   12.913528    6.626606 C.ar      2 PHENYL     -0.061501 
     37 C          16.163360   13.786827    5.933692 C.ar      2 PHENYL     -0.061742 
     38 C          15.960648   15.164803    6.038704 C.ar      2 PHENYL     -0.061501 
     39 C          14.917524   15.664306    6.824518 C.ar      2 PHENYL     -0.058512 
     40 C1         10.482701   18.909291   10.957958 C.3       3 ISOPROPYL   -0.019657 
     41 C2         11.785067   18.581240   11.739978 C.3       3 ISOPROPYL   -0.060524 
     42 C3          9.576634   19.846042   11.803624 C.3       3 ISOPROPYL   -0.060524 
     43 C1         10.750821   17.735588    1.025851 C.3       4 ISOPROPYL   -0.019730 
     44 C2         12.196764   18.043109    0.541191 C.3       4 ISOPROPYL   -0.060525 
     45 C3         10.211033   18.892736    1.911804 C.3       4 ISOPROPYL   -0.060525 
     46 O1         10.270817   17.062282    5.883440 O.3       5 OH         -0.387906 
     47 N47        11.996317   13.773569    5.512327 N.3       1 PHENYL     -0.299550 
     48 H1          5.350820   17.118107   16.369614 H         1 PHENYL      0.062101 
     49 C49        12.820232   13.098725    4.477271 C.3       7 <7>         0.021997 
     50 C          13.259257   11.662024    4.802800 C.ar      6 PHENYL     -0.033558 
     51 C          14.242440   11.071488    3.999272 C.ar      6 PHENYL     -0.057350 
     52 C          14.703394    9.779342    4.265889 C.ar      6 PHENYL     -0.061461 
     53 C          14.174283    9.058275    5.338985 C.ar      6 PHENYL     -0.061741 
     54 C          13.181283    9.632714    6.136428 C.ar      6 PHENYL     -0.061461 
     55 C          12.723293   10.925987    5.867074 C.ar      6 PHENYL     -0.057350 
     56 H2          5.281541   15.739308   18.420310 H         1 PHENYL      0.061767 
     57 H3          6.366869   13.505630   18.460074 H         1 PHENYL      0.061758 
     58 H4          7.512940   12.650663   16.428496 H         1 PHENYL      0.061767 
     59 H5          7.581780   14.024639   14.371172 H         1 PHENYL      0.062101 
     60 H6          6.423811   17.597679   14.218298 H         1 PHENYL      0.061655 
     61 H7          5.760823   16.210666   13.286203 H         1 PHENYL      0.061655 
     62 H8          9.921165   16.236277   12.140632 H         1 PHENYL      0.151734 
     63 H9          8.863460   17.885942    9.893927 H         1 PHENYL      0.059775 
     64 H10        10.705482   18.067470    8.129912 H         1 PHENYL      0.149127 
     65 H11        12.610333   17.167119    7.142302 H         1 PHENYL      0.052746 
     66 H12        10.253308   15.247896    6.807109 H         1 PHENYL      0.063235 
     67 H13        12.739726   15.718101    5.111401 H         1 PHENYL      0.058313 
     68 H14        12.061066   16.953016    3.236635 H         1 PHENYL      0.149509 
     69 H15         9.555455   16.176266    1.918015 H         1 PHENYL      0.059702 
     70 H16         9.620129   15.285075   -0.454549 H         1 PHENYL      0.149130 
     71 H17        11.190945   12.871853   -0.425014 H         1 PHENYL      0.052684 
     72 H18        11.980417   14.093859   -1.462752 H         1 PHENYL      0.052684 
     73 H19        10.038518   13.373405   -5.500960 H         8 PHENYL      0.082944 
     74 H20         7.736579   12.501126   -5.099521 H         8 PHENYL      0.063265 
     75 H21         6.936247   12.210643   -2.753091 H         8 PHENYL      0.061859 
     76 H22         8.458636   12.795242   -0.865981 H         8 PHENYL      0.063595 
     77 H23        12.125445   14.464051    8.465981 H         1 PHENYL      0.033193 
     78 H24        13.202926   15.709666    9.168597 H         1 PHENYL      0.033193 
     79 H25        13.604873   12.719978    7.889546 H         2 PHENYL      0.062030 
     80 H26        15.502245   11.843211    6.588055 H         2 PHENYL      0.061766 
     81 H27        16.970094   13.396513    5.320933 H         2 PHENYL      0.061758 
     82 H28        16.619075   15.848773    5.511749 H         2 PHENYL      0.061766 
     83 H29        14.836608   16.737371    6.948375 H         2 PHENYL      0.062030 
     84 H30        10.769422   19.473357   10.053846 H         3 ISOPROPYL    0.031803 
     85 H31        12.321133   19.509442   11.992983 H         3 ISOPROPYL    0.023302 
     86 H32        12.457424   17.954022   11.134761 H         3 ISOPROPYL    0.023302 
     87 H33        11.556508   18.050594   12.676352 H         3 ISOPROPYL    0.023302 
     88 H34        10.095862   20.795450   12.008742 H         3 ISOPROPYL    0.023302 
     89 H35         9.321537   19.381834   12.767980 H         3 ISOPROPYL    0.023302 
     90 H36         8.646004   20.073525   11.260877 H         3 ISOPROPYL    0.023302 
     91 H37        10.116048   17.690814    0.122524 H         4 ISOPROPYL    0.031802 
     92 H38        12.564658   17.246279   -0.123191 H         4 ISOPROPYL    0.023302 
     93 H39        12.896213   18.145314    1.382816 H         4 ISOPROPYL    0.023302 
     94 H40        12.209464   18.987187   -0.025815 H         4 ISOPROPYL    0.023302 
     95 H41        10.212972   19.838714    1.347851 H         4 ISOPROPYL    0.023302 
     96 H42        10.830613   19.027195    2.810559 H         4 ISOPROPYL    0.023302 
     97 H43         9.177640   18.682823    2.228772 H         4 ISOPROPYL    0.023302 
     98 H44        10.818815   17.734757    5.492257 H         5 OH          0.209942 
     99 H45        11.036803   13.276130    5.591365 H         1 PHENYL      0.123028 
    100 H46        13.741810   13.682120    4.324476 H         7 <7>         0.047363 
    101 H47        12.283080   13.055573    3.515621 H         7 <7>         0.047363 
    102 H48        14.656227   11.619504    3.158398 H         6 PHENYL      0.062070 
    103 H49        15.471835    9.336096    3.639800 H         6 PHENYL      0.061767 
    104 H50        14.532708    8.055687    5.551629 H         6 PHENYL      0.061758 
    105 H51        12.764622    9.072216    6.967887 H         6 PHENYL      0.061767 
    106 H52        11.949793   11.342762    6.500143 H         6 PHENYL      0.062070 
@<TRIPOS>BOND
     1    1    2 ar   
     2    1    6 ar   
     3    6    5 ar   
     4    5    4 ar   
     5    4    3 ar   
     6    3    2 ar   
     7    1    7 1    
     8    7    8 1    
     9    8    9 1    
    10    9   10 am   
    11   10   11 1    
    12   11   12 1    
    13   12   13 am   
    14   13   14 1    
    15   14   15 1    
    16   15   16 1    
    17   16   17 1    
    18   17   18 am   
    19   18   19 1    
    20   19   20 1    
    21   20   21 am   
    22   21   22 1    
    23   23   24 ar   
    24   23   28 ar   
    25   28   27 ar   
    26   27   26 ar   
    27   26   25 ar   
    28   25   24 ar   
    29   22   23 1    
    30    9   29 2    
    31   12   30 2    
    32   17   31 2    
    33   20   32 2    
    34   14   33 1    
    35   34   35 ar   
    36   34   39 ar   
    37   39   38 ar   
    38   38   37 ar   
    39   37   36 ar   
    40   36   35 ar   
    41   33   34 1    
    42   40   41 1    
    43   40   42 1    
    44   11   40 1    
    45   43   44 1    
    46   43   45 1    
    47   19   43 1    
    48   16   47 1    
    49   15   46 1    
    50   49   47 1    
    51    2   48 1    
    52   50   51 ar   
    53   50   55 ar   
    54   55   54 ar   
    55   54   53 ar   
    56   53   52 ar   
    57   52   51 ar   
    58   49   50 1    
    59    3   56 1    
    60    4   57 1    
    61    5   58 1    
    62    6   59 1    
    63    7   60 1    
    64    7   61 1    
    65   10   62 1    
    66   11   63 1    
    67   13   64 1    
    68   14   65 1    
    69   15   66 1    
    70   16   67 1    
    71   18   68 1    
    72   19   69 1    
    73   21   70 1    
    74   22   71 1    
    75   22   72 1    
    76   25   73 1    
    77   26   74 1    
    78   27   75 1    
    79   28   76 1    
    80   33   77 1    
    81   33   78 1    
    82   35   79 1    
    83   36   80 1    
    84   37   81 1    
    85   38   82 1    
    86   39   83 1    
    87   40   84 1    
    88   41   85 1    
    89   41   86 1    
    90   41   87 1    
    91   42   88 1    
    92   42   89 1    
    93   42   90 1    
    94   43   91 1    
    95   44   92 1    
    96   44   93 1    
    97   44   94 1    
    98   45   95 1    
    99   45   96 1    
   100   45   97 1    
   101   46   98 1    
   102   47   99 1    
   103   49  100 1    
   104   49  101 1    
   105   51  102 1    
   106   52  103 1    
   107   53  104 1    
   108   54  105 1    
   109   55  106 1    
@<TRIPOS>SUBSTRUCTURE
     1 PHENYL      1 PERM              0 ****  ****    6  
     2 PHENYL     34 PERM              0 ****  ****    1  
     3 ISOPROPYL    40 PERM              0 ****  ****    1  
     4 ISOPROPYL    43 PERM              0 ****  ****    1  
     5 OH         46 PERM              0 ****  ****    1  
     6 PHENYL     50 PERM              0 ****  ****    1  
     7 ****       49 PERM              0 ****  ****    2 ROOT 
     8 PHENYL     23 PERM              0 ****  ****    1  
@<TRIPOS>NORMAL
@<TRIPOS>FF_PBC
FORCE_FIELD_SETUP_FEATURE Force Field Setup information
v1.0  0 0.000000 0.000000 0.000000 0.000000 0.000000 0.000000 NONE 0 0 0 0 1 0 0 0 0 0 0 0 0
