#	Name:			Sc24
#	Creating user name:	nsalim
#	Creation time:		Wed Feb  9 14:00:13 2005

#	Modifying user name:	nsalim
#	Modification time:	Wed Feb  9 14:00:23 2005

@<TRIPOS>MOLECULE
Sc24
  109   113     8     1     0
SMALL
GASTEIGER


@<TRIPOS>ATOM
      1 C1          6.030553   15.623742   14.793272 C.ar      1 PHENYL     -0.021282 
      2 C           5.383431   16.071282   15.951632 C.ar      1 PHENYL     -0.056372 
      3 C           5.212198   15.213847   17.042585 C.ar      1 PHENYL     -0.061429 
      4 C           5.680254   13.898537   16.979612 C.ar      1 PHENYL     -0.061740 
      5 C           6.313251   13.441329   15.820640 C.ar      1 PHENYL     -0.061429 
      6 C           6.482280   14.300449   14.730764 C.ar      1 PHENYL     -0.056372 
      7 C7          6.251340   16.563828   13.600447 C.3       1 PHENYL      0.083653 
      8 O8          7.552756   16.299559   13.038823 O.3       1 PHENYL     -0.295140 
      9 C9          7.873400   17.085971   12.001698 C.2       1 PHENYL      0.353139 
     10 N10         9.108424   16.820864   11.526596 N.am      1 PHENYL     -0.279805 
     11 C11         9.692969   17.613136   10.441527 C.3       1 PHENYL      0.103775 
     12 C12        10.537582   16.716797    9.554894 C.2       1 PHENYL      0.233986 
     13 N13        11.114985   17.239173    8.444296 N.am      1 PHENYL     -0.308078 
     14 C14        11.959141   16.452256    7.531655 C.3       1 PHENYL      0.054959 
     15 C15        11.031575   15.911855    6.402310 C.3       1 PHENYL      0.097537 
     16 C16        11.782909   15.178090    5.250657 C.3       1 PHENYL      0.112915 
     17 C17        10.996825   15.325868    3.963710 C.2       1 PHENYL      0.233282 
     18 N18        11.290356   16.334678    3.108598 N.am      1 PHENYL     -0.301688 
     19 C19        10.587954   16.433642    1.826067 C.3       1 PHENYL      0.110928 
     20 C20        11.178211   15.445216    0.848109 C.2       1 PHENYL      0.283282 
     21 O21        10.629070   15.459966   -0.375248 O.3       1 PHENYL     -0.306206 
     22 C22        11.208513   14.504106   -1.287165 C.3       1 PHENYL      0.112641 
     23 C          10.540561   14.654018   -2.628477 C.2       8 PHENYL      0.126555 
     24 N24        11.076844   15.239703   -3.666953 N.pl3     8 PHENYL     -0.299334 
     25 C25        10.157823   15.168691   -4.658460 C.ar      8 PHENYL      0.057969 
     26 C26         9.047795   14.512895   -4.149624 C.ar      8 PHENYL      0.086801 
     27 N27         9.372822   14.225757   -2.881844 N.2       8 PHENYL     -0.232632 
     28 C28        10.196674   15.625606   -5.974226 C.ar      8 PHENYL     -0.038435 
     29 O29         7.127965   17.945112   11.557738 O.2       1 PHENYL     -0.241337 
     30 O30        10.657894   15.551560    9.893776 O.2       1 PHENYL     -0.273760 
     31 O31        10.117336   14.512237    3.730596 O.2       1 PHENYL     -0.273987 
     32 O32        12.095779   14.699328    1.158371 O.2       1 PHENYL     -0.262879 
     33 C33        12.839719   15.370746    8.231419 C.3       1 PHENYL     -0.006715 
     34 C          14.088630   14.886046    7.466211 C.ar      2 PHENYL     -0.045529 
     35 C          14.348973   13.513414    7.356895 C.ar      2 PHENYL     -0.058512 
     36 C          15.435104   13.042609    6.613779 C.ar      2 PHENYL     -0.061501 
     37 C          16.274838   13.946072    5.958964 C.ar      2 PHENYL     -0.061742 
     38 C          16.057551   15.318427    6.104740 C.ar      2 PHENYL     -0.061501 
     39 C          14.997703   15.782893    6.889353 C.ar      2 PHENYL     -0.058512 
     40 C1         10.539259   18.781400   11.038487 C.3       3 ISOPROPYL   -0.019657 
     41 C2         11.755816   18.256693   11.851404 C.3       3 ISOPROPYL   -0.060524 
     42 C3          9.673497   19.721400   11.923138 C.3       3 ISOPROPYL   -0.060524 
     43 C1         10.583821   17.876269    1.228169 C.3       4 ISOPROPYL   -0.018967 
     44 C2         11.986206   18.343178    0.741865 C.3       4 ISOPROPYL   -0.060500 
     45 C3          9.986200   18.894862    2.238389 C.3       4 ISOPROPYL   -0.060500 
     46 O1         10.251097   17.011978    5.888443 O.3       5 OH         -0.387906 
     47 N47        11.995753   13.738075    5.547790 N.3       1 PHENYL     -0.299550 
     48 C48         9.050789   15.388067   -6.748030 C.ar      8 PHENYL     -0.059877 
     49 C49        12.838516   13.037308    4.546665 C.3       7 <7>         0.021997 
     50 C          13.270024   11.613031    4.931979 C.ar      6 PHENYL     -0.033558 
     51 C          14.245319   10.980501    4.151171 C.ar      6 PHENYL     -0.057350 
     52 C          14.701194    9.699639    4.475272 C.ar      6 PHENYL     -0.061461 
     53 C          14.174793    9.032004    5.583747 C.ar      6 PHENYL     -0.061741 
     54 C          13.188032    9.647505    6.358065 C.ar      6 PHENYL     -0.061461 
     55 C          12.734630   10.928699    6.030694 C.ar      6 PHENYL     -0.057350 
     56 C56         7.926882   14.725685   -6.221956 C.ar      8 PHENYL     -0.059637 
     57 C57         7.899016   14.267059   -4.896823 C.ar      8 PHENYL     -0.034439 
     58 H1          5.009009   17.088183   16.012179 H         1 PHENYL      0.062101 
     59 H2          4.715267   15.569515   17.940206 H         1 PHENYL      0.061767 
     60 H3          5.552129   13.233672   17.828502 H         1 PHENYL      0.061758 
     61 H4          6.673997   12.418574   15.767098 H         1 PHENYL      0.061767 
     62 H5          6.968245   13.933918   13.832026 H         1 PHENYL      0.062101 
     63 H6          6.189697   17.612610   13.935278 H         1 PHENYL      0.061655 
     64 H7          5.454892   16.370117   12.863905 H         1 PHENYL      0.061655 
     65 H8          9.660005   16.086159   11.927678 H         1 PHENYL      0.151734 
     66 H9          8.901788   18.024660    9.792468 H         1 PHENYL      0.059775 
     67 H10        10.916054   18.184706    8.179066 H         1 PHENYL      0.149127 
     68 H11        12.642619   17.173593    7.059015 H         1 PHENYL      0.052746 
     69 H12        10.298684   15.222367    6.850037 H         1 PHENYL      0.063235 
     70 H13        12.761067   15.664160    5.117676 H         1 PHENYL      0.058313 
     71 H14        12.034441   16.971648    3.301344 H         1 PHENYL      0.149532 
     72 H15         9.532544   16.143003    1.962427 H         1 PHENYL      0.060510 
     73 H16        11.042126   13.474381   -0.932073 H         1 PHENYL      0.064487 
     74 H17        12.290819   14.672130   -1.408412 H         1 PHENYL      0.064487 
     75 H18        12.008792   15.674876   -3.723681 H         8 PHENYL      0.153385 
     76 H19        11.067942   16.135463   -6.370789 H         8 PHENYL      0.063671 
     77 H20        12.208250   14.500426    8.461197 H         1 PHENYL      0.033193 
     78 H21        13.216159   15.789589    9.177613 H         1 PHENYL      0.033193 
     79 H22        13.709936   12.794118    7.856637 H         2 PHENYL      0.062030 
     80 H23        15.625639   11.975622    6.544522 H         2 PHENYL      0.061766 
     81 H24        17.092877   13.583169    5.344363 H         2 PHENYL      0.061758 
     82 H25        16.717527   16.025169    5.610400 H         2 PHENYL      0.061766 
     83 H26        14.902814   16.850661    7.049282 H         2 PHENYL      0.062030 
     84 H27        10.932305   19.395583   10.210428 H         3 ISOPROPYL    0.031803 
     85 H28        11.420793   17.668392   12.718593 H         3 ISOPROPYL    0.023302 
     86 H29        12.359461   19.100510   12.221163 H         3 ISOPROPYL    0.023302 
     87 H30        12.403624   17.623794   11.225579 H         3 ISOPROPYL    0.023302 
     88 H31         8.802226   20.087369   11.357994 H         3 ISOPROPYL    0.023302 
     89 H32        10.263140   20.593601   12.246848 H         3 ISOPROPYL    0.023302 
     90 H33         9.318276   19.198479   12.823615 H         3 ISOPROPYL    0.023302 
     91 H34         9.923944   17.868666    0.341127 H         4 ISOPROPYL    0.031827 
     92 H35        12.398606   17.643809   -0.001343 H         4 ISOPROPYL    0.023303 
     93 H36        12.699712   18.427490    1.573488 H         4 ISOPROPYL    0.023303 
     94 H37        11.905524   19.332484    0.264812 H         4 ISOPROPYL    0.023303 
     95 H38         9.888447   19.886343    1.769107 H         4 ISOPROPYL    0.023303 
     96 H39        10.629278   18.996466    3.124603 H         4 ISOPROPYL    0.023303 
     97 H40         8.987048   18.569411    2.567602 H         4 ISOPROPYL    0.023303 
     98 H41        10.773681   17.698315    5.486747 H         5 OH          0.209942 
     99 H42        11.031536   13.247117    5.614797 H         1 PHENYL      0.123028 
    100 H43         9.033065   15.725223   -7.780263 H         8 PHENYL      0.061817 
    101 H44        13.764289   13.613610    4.392262 H         7 <7>         0.047363 
    102 H45        12.316620   12.968687    3.577963 H         7 <7>         0.047363 
    103 H46        14.656955   11.486921    3.283851 H         6 PHENYL      0.062070 
    104 H47        15.463756    9.223552    3.866535 H         6 PHENYL      0.061767 
    105 H48        14.530227    8.039002    5.841772 H         6 PHENYL      0.061758 
    106 H49        12.772809    9.128210    7.216746 H         6 PHENYL      0.061767 
    107 H50        11.964941   11.377604    6.646663 H         6 PHENYL      0.062070 
    108 H51         7.059251   14.564483   -6.854994 H         8 PHENYL      0.061824 
    109 H52         7.042697   13.753944   -4.472895 H         8 PHENYL      0.063930 
@<TRIPOS>BOND
     1    1    2 ar   
     2    1    6 ar   
     3    6    5 ar   
     4    5    4 ar   
     5    4    3 ar   
     6    3    2 ar   
     7    1    7 1    
     8    7    8 1    
     9    8    9 1    
    10    9   10 am   
    11   10   11 1    
    12   11   12 1    
    13   12   13 am   
    14   13   14 1    
    15   14   15 1    
    16   15   16 1    
    17   16   17 1    
    18   17   18 am   
    19   18   19 1    
    20   19   20 1    
    21   20   21 1    
    22   21   22 1    
    23   23   24 1    
    24   24   25 1    
    25   25   26 ar   
    26   26   27 1    
    27   23   27 2    
    28   25   28 ar   
    29   22   23 1    
    30    9   29 2    
    31   12   30 2    
    32   17   31 2    
    33   20   32 2    
    34   14   33 1    
    35   34   35 ar   
    36   34   39 ar   
    37   39   38 ar   
    38   38   37 ar   
    39   37   36 ar   
    40   36   35 ar   
    41   33   34 1    
    42   40   41 1    
    43   40   42 1    
    44   11   40 1    
    45   43   44 1    
    46   43   45 1    
    47   19   43 1    
    48   16   47 1    
    49   15   46 1    
    50   49   47 1    
    51   28   48 ar   
    52   50   51 ar   
    53   50   55 ar   
    54   55   54 ar   
    55   54   53 ar   
    56   53   52 ar   
    57   52   51 ar   
    58   49   50 1    
    59   48   56 ar   
    60   56   57 ar   
    61   26   57 ar   
    62    2   58 1    
    63    3   59 1    
    64    4   60 1    
    65    5   61 1    
    66    6   62 1    
    67    7   63 1    
    68    7   64 1    
    69   10   65 1    
    70   11   66 1    
    71   13   67 1    
    72   14   68 1    
    73   15   69 1    
    74   16   70 1    
    75   18   71 1    
    76   19   72 1    
    77   22   73 1    
    78   22   74 1    
    79   24   75 1    
    80   28   76 1    
    81   33   77 1    
    82   33   78 1    
    83   35   79 1    
    84   36   80 1    
    85   37   81 1    
    86   38   82 1    
    87   39   83 1    
    88   40   84 1    
    89   41   85 1    
    90   41   86 1    
    91   41   87 1    
    92   42   88 1    
    93   42   89 1    
    94   42   90 1    
    95   43   91 1    
    96   44   92 1    
    97   44   93 1    
    98   44   94 1    
    99   45   95 1    
   100   45   96 1    
   101   45   97 1    
   102   46   98 1    
   103   47   99 1    
   104   48  100 1    
   105   49  101 1    
   106   49  102 1    
   107   51  103 1    
   108   52  104 1    
   109   53  105 1    
   110   54  106 1    
   111   55  107 1    
   112   56  108 1    
   113   57  109 1    
@<TRIPOS>SUBSTRUCTURE
     1 PHENYL      1 PERM              0 ****  ****    6  
     2 PHENYL     34 PERM              0 ****  ****    1  
     3 ISOPROPYL    40 PERM              0 ****  ****    1  
     4 ISOPROPYL    43 PERM              0 ****  ****    1  
     5 OH         46 PERM              0 ****  ****    1  
     6 PHENYL     50 PERM              0 ****  ****    1  
     7 ****       49 PERM              0 ****  ****    2 ROOT 
     8 PHENYL     23 PERM              0 ****  ****    1  
@<TRIPOS>NORMAL
@<TRIPOS>FF_PBC
FORCE_FIELD_SETUP_FEATURE Force Field Setup information
v1.0  0 0.000000 0.000000 0.000000 0.000000 0.000000 0.000000 NONE 0 0 0 0 1 0 0 0 0 0 0 0 0
