#	Name:			Sc25
#	Creating user name:	nsalim
#	Creation time:		Wed Feb  9 14:00:58 2005

#	Modifying user name:	nsalim
#	Modification time:	Wed Feb  9 14:01:08 2005

@<TRIPOS>MOLECULE
Sc25
  114   118     8     1     0
SMALL
GASTEIGER


@<TRIPOS>ATOM
      1 C1          5.450380   15.692167   14.223723 C.ar      1 PHENYL     -0.021282 
      2 C           4.766504   16.116035   15.369625 C.ar      1 PHENYL     -0.056372 
      3 C           4.422236   15.199773   16.367887 C.ar      1 PHENYL     -0.061429 
      4 C           4.751682   13.849521   16.222494 C.ar      1 PHENYL     -0.061740 
      5 C           5.418560   13.417233   15.073087 C.ar      1 PHENYL     -0.061429 
      6 C           5.760831   14.335350   14.075917 C.ar      1 PHENYL     -0.056372 
      7 C7          5.863468   16.694778   13.137639 C.3       1 PHENYL      0.083653 
      8 O8          7.161895   16.322852   12.633104 O.3       1 PHENYL     -0.295140 
      9 C9          7.652730   17.159652   11.707736 C.2       1 PHENYL      0.353139 
     10 N10         8.882751   16.790822   11.292279 N.am      1 PHENYL     -0.279805 
     11 C11         9.647107   17.613277   10.350302 C.3       1 PHENYL      0.103775 
     12 C12        10.447530   16.715905    9.424631 C.2       1 PHENYL      0.233986 
     13 N13        11.209761   17.269340    8.449653 N.am      1 PHENYL     -0.308078 
     14 C14        12.015573   16.454141    7.528392 C.3       1 PHENYL      0.054959 
     15 C15        11.070700   15.909117    6.415933 C.3       1 PHENYL      0.097537 
     16 C16        11.801407   15.157436    5.260955 C.3       1 PHENYL      0.112915 
     17 C17        10.997772   15.321634    3.986303 C.2       1 PHENYL      0.233264 
     18 N18        11.307844   16.315849    3.119581 N.am      1 PHENYL     -0.302393 
     19 C19        10.535078   16.479324    1.884913 C.3       1 PHENYL      0.101686 
     20 C20        10.985405   15.479808    0.838508 C.2       1 PHENYL      0.233623 
     21 N21        10.175613   15.236364   -0.220098 N.am      1 PHENYL     -0.313463 
     22 C22        10.603526   14.321466   -1.278605 C.3       1 PHENYL      0.015681 
     23 C          11.080002   14.045837   -4.671415 C.2       8 PHENYL     -0.002378 
     24 N24        11.287540   13.042088   -5.484721 N.pl3     8 PHENYL     -0.319787 
     25 C25        10.606837   11.943467   -5.103496 C.ar      8 PHENYL      0.038452 
     26 C26         9.898935   12.216931   -3.948735 C.ar      8 PHENYL      0.000514 
     27 C27        10.243460   13.662093   -3.692181 C.2       8 PHENYL     -0.023223 
     28 C28        10.561682   10.688837   -5.710120 C.ar      8 PHENYL     -0.039969 
     29 O29         7.049617   18.142642   11.306569 O.2       1 PHENYL     -0.241337 
     30 O30        10.367163   15.512056    9.602670 O.2       1 PHENYL     -0.273760 
     31 O31        10.083836   14.539539    3.778282 O.2       1 PHENYL     -0.273988 
     32 O32        12.068034   14.930052    0.967717 O.2       1 PHENYL     -0.273770 
     33 C33        12.868016   15.375575    8.265789 C.3       1 PHENYL     -0.006715 
     34 C          14.105796   14.853362    7.509570 C.ar      2 PHENYL     -0.045529 
     35 C          14.312416   13.474773    7.368642 C.ar      2 PHENYL     -0.058512 
     36 C          15.399055   12.980974    6.641543 C.ar      2 PHENYL     -0.061501 
     37 C          16.291246   13.866719    6.033825 C.ar      2 PHENYL     -0.061742 
     38 C          16.121729   15.242677    6.206148 C.ar      2 PHENYL     -0.061501 
     39 C          15.057920   15.728872    6.972288 C.ar      2 PHENYL     -0.058512 
     40 C1         10.566403   18.595328   11.143432 C.3       3 ISOPROPYL   -0.019657 
     41 C2         11.641024   17.837521   11.971437 C.3       3 ISOPROPYL   -0.060524 
     42 C3          9.741099   19.529566   12.071710 C.3       3 ISOPROPYL   -0.060524 
     43 C1         10.584395   17.929806    1.306569 C.3       4 ISOPROPYL   -0.019731 
     44 C2         11.979072   18.310662    0.731910 C.3       4 ISOPROPYL   -0.060525 
     45 C3         10.127956   18.971170    2.366325 C.3       4 ISOPROPYL   -0.060525 
     46 O1         10.294984   17.011993    5.900499 O.3       5 OH         -0.387906 
     47 N47        11.980435   13.713761    5.559510 N.3       1 PHENYL     -0.299550 
     48 C48         9.760650    9.715120   -5.098651 C.ar      8 PHENYL     -0.059972 
     49 C49        12.809190   12.992308    4.561273 C.3       7 <7>         0.021997 
     50 C          13.196934   11.554523    4.943752 C.ar      6 PHENYL     -0.033558 
     51 C          14.157960   10.897109    4.165784 C.ar      6 PHENYL     -0.057350 
     52 C          14.572662    9.601049    4.485058 C.ar      6 PHENYL     -0.061461 
     53 C          14.018967    8.943421    5.586224 C.ar      6 PHENYL     -0.061741 
     54 C          13.047605    9.584772    6.358605 C.ar      6 PHENYL     -0.061461 
     55 C          12.635869   10.881324    6.036324 C.ar      6 PHENYL     -0.057350 
     56 C56         9.047482    9.994038   -3.921326 C.ar      8 PHENYL     -0.061079 
     57 C57         9.108994   11.257605   -3.317455 C.ar      8 PHENYL     -0.052522 
     58 C58         9.737080   14.504864   -2.552512 C.3       1 PHENYL     -0.010266 
     59 H1          4.497651   17.160221   15.492472 H         1 PHENYL      0.062101 
     60 H2          3.898741   15.536864   17.257335 H         1 PHENYL      0.061767 
     61 H3          4.490112   13.138429   17.000218 H         1 PHENYL      0.061758 
     62 H4          5.671229   12.367847   14.955009 H         1 PHENYL      0.061767 
     63 H5          6.271128   13.988448   13.182954 H         1 PHENYL      0.062101 
     64 H6          5.900876   17.710231   13.565801 H         1 PHENYL      0.061655 
     65 H7          5.105448   16.664793   12.338532 H         1 PHENYL      0.061655 
     66 H8          9.308297   15.955768   11.648081 H         1 PHENYL      0.151734 
     67 H9          8.969346   18.188603    9.697902 H         1 PHENYL      0.059775 
     68 H10        11.188264   18.259512    8.298621 H         1 PHENYL      0.149127 
     69 H11        12.714385   17.143126    7.029351 H         1 PHENYL      0.052746 
     70 H12        10.335608   15.230777    6.876399 H         1 PHENYL      0.063235 
     71 H13        12.789077   15.621605    5.117991 H         1 PHENYL      0.058313 
     72 H14        12.091455   16.912683    3.281989 H         1 PHENYL      0.149509 
     73 H15         9.475111   16.269844    2.107565 H         1 PHENYL      0.059702 
     74 H16         9.273022   15.665189   -0.288892 H         1 PHENYL      0.148744 
     75 H17        10.533344   13.280235   -0.922861 H         1 PHENYL      0.046508 
     76 H18        11.655141   14.525997   -1.543966 H         1 PHENYL      0.046508 
     77 H19        11.516106   15.041162   -4.765388 H         8 PHENYL      0.078413 
     78 H20        11.899363   13.084261   -6.314171 H         8 PHENYL      0.151632 
     79 H21        11.124503   10.482687   -6.614411 H         8 PHENYL      0.063622 
     80 H22        12.226862   14.524613    8.534188 H         1 PHENYL      0.033193 
     81 H23        13.250708   15.819379    9.197559 H         1 PHENYL      0.033193 
     82 H24        13.630823   12.770049    7.830535 H         2 PHENYL      0.062030 
     83 H25        15.549559   11.909624    6.548406 H         2 PHENYL      0.061766 
     84 H26        17.113111   13.487275    5.434507 H         2 PHENYL      0.061758 
     85 H27        16.821251   15.934702    5.747091 H         2 PHENYL      0.061766 
     86 H28        14.991620   16.796197    7.150336 H         2 PHENYL      0.062030 
     87 H29        11.096982   19.248706   10.430066 H         3 ISOPROPYL    0.031803 
     88 H30        11.169476   17.203439   12.736845 H         3 ISOPROPYL    0.023302 
     89 H31        12.303867   18.555295   12.479701 H         3 ISOPROPYL    0.023302 
     90 H32        12.261583   17.202251   11.321363 H         3 ISOPROPYL    0.023302 
     91 H33         8.966931   20.059317   11.495035 H         3 ISOPROPYL    0.023302 
     92 H34        10.397863   20.281826   12.536312 H         3 ISOPROPYL    0.023302 
     93 H35         9.255586   18.958784   12.877356 H         3 ISOPROPYL    0.023302 
     94 H36         9.869698   17.988165    0.465587 H         4 ISOPROPYL    0.031802 
     95 H37        12.285680   17.604563   -0.055165 H         4 ISOPROPYL    0.023302 
     96 H38        12.753239   18.320386    1.512320 H         4 ISOPROPYL    0.023302 
     97 H39        11.935408   19.316500    0.285011 H         4 ISOPROPYL    0.023302 
     98 H40        10.058227   19.972020    1.911544 H         4 ISOPROPYL    0.023302 
     99 H41        10.840183   19.024047    3.202629 H         4 ISOPROPYL    0.023302 
    100 H42         9.137140   18.704371    2.766361 H         4 ISOPROPYL    0.023302 
    101 H43        10.821562   17.694309    5.497770 H         5 OH          0.209942 
    102 H44        11.004528   13.246194    5.623573 H         1 PHENYL      0.123028 
    103 H45         9.692445    8.727336   -5.544467 H         8 PHENYL      0.061816 
    104 H46        13.752794   13.541562    4.416753 H         7 <7>         0.047363 
    105 H47        12.291482   12.945348    3.589067 H         7 <7>         0.047363 
    106 H48        14.590897   11.395650    3.304199 H         6 PHENYL      0.062070 
    107 H49        15.324347    9.105469    3.878230 H         6 PHENYL      0.061767 
    108 H50        14.341791    7.938116    5.839873 H         6 PHENYL      0.061758 
    109 H51        12.611667    9.073640    7.212007 H         6 PHENYL      0.061767 
    110 H52        11.877727   11.350383    6.651705 H         6 PHENYL      0.062070 
    111 H53         8.437912    9.217501   -3.469643 H         8 PHENYL      0.061777 
    112 H54         8.571090   11.483049   -2.403130 H         8 PHENYL      0.062411 
    113 H55         9.769486   15.564522   -2.852855 H         1 PHENYL      0.032889 
    114 H56         8.688704   14.238415   -2.346082 H         1 PHENYL      0.032889 
@<TRIPOS>BOND
     1    1    2 ar   
     2    1    6 ar   
     3    6    5 ar   
     4    5    4 ar   
     5    4    3 ar   
     6    3    2 ar   
     7    1    7 1    
     8    7    8 1    
     9    8    9 1    
    10    9   10 am   
    11   10   11 1    
    12   11   12 1    
    13   12   13 am   
    14   13   14 1    
    15   14   15 1    
    16   15   16 1    
    17   16   17 1    
    18   17   18 am   
    19   18   19 1    
    20   19   20 1    
    21   20   21 am   
    22   21   22 1    
    23   23   24 1    
    24   24   25 1    
    25   25   26 ar   
    26   26   27 1    
    27   23   27 2    
    28   25   28 ar   
    29   22   58 1    
    30    9   29 2    
    31   12   30 2    
    32   17   31 2    
    33   20   32 2    
    34   14   33 1    
    35   34   35 ar   
    36   34   39 ar   
    37   39   38 ar   
    38   38   37 ar   
    39   37   36 ar   
    40   36   35 ar   
    41   33   34 1    
    42   40   41 1    
    43   40   42 1    
    44   11   40 1    
    45   43   44 1    
    46   43   45 1    
    47   19   43 1    
    48   16   47 1    
    49   15   46 1    
    50   47   49 1    
    51   28   48 ar   
    52   50   51 ar   
    53   50   55 ar   
    54   55   54 ar   
    55   54   53 ar   
    56   53   52 ar   
    57   52   51 ar   
    58   49   50 1    
    59   48   56 ar   
    60   56   57 ar   
    61   26   57 ar   
    62   27   58 1    
    63    2   59 1    
    64    3   60 1    
    65    4   61 1    
    66    5   62 1    
    67    6   63 1    
    68    7   64 1    
    69    7   65 1    
    70   10   66 1    
    71   11   67 1    
    72   13   68 1    
    73   14   69 1    
    74   15   70 1    
    75   16   71 1    
    76   18   72 1    
    77   19   73 1    
    78   21   74 1    
    79   22   75 1    
    80   22   76 1    
    81   23   77 1    
    82   24   78 1    
    83   28   79 1    
    84   33   80 1    
    85   33   81 1    
    86   35   82 1    
    87   36   83 1    
    88   37   84 1    
    89   38   85 1    
    90   39   86 1    
    91   40   87 1    
    92   41   88 1    
    93   41   89 1    
    94   41   90 1    
    95   42   91 1    
    96   42   92 1    
    97   42   93 1    
    98   43   94 1    
    99   44   95 1    
   100   44   96 1    
   101   44   97 1    
   102   45   98 1    
   103   45   99 1    
   104   45  100 1    
   105   46  101 1    
   106   47  102 1    
   107   48  103 1    
   108   49  104 1    
   109   49  105 1    
   110   51  106 1    
   111   52  107 1    
   112   53  108 1    
   113   54  109 1    
   114   55  110 1    
   115   56  111 1    
   116   57  112 1    
   117   58  113 1    
   118   58  114 1    
@<TRIPOS>SUBSTRUCTURE
     1 PHENYL      1 PERM              0 ****  ****    6  
     2 PHENYL     34 PERM              0 ****  ****    1  
     3 ISOPROPYL    40 PERM              0 ****  ****    1  
     4 ISOPROPYL    43 PERM              0 ****  ****    1  
     5 OH         46 PERM              0 ****  ****    1  
     6 PHENYL     50 PERM              0 ****  ****    1  
     7 ****       49 PERM              0 ****  ****    2  
     8 PHENYL     23 PERM              0 ****  ****    1 ROOT 
@<TRIPOS>NORMAL
@<TRIPOS>FF_PBC
FORCE_FIELD_SETUP_FEATURE Force Field Setup information
v1.0  0 0.000000 0.000000 0.000000 0.000000 0.000000 0.000000 NONE 0 0 0 0 1 0 0 0 0 0 0 0 0
