#	Name:			Sc26
#	Creating user name:	nsalim
#	Creation time:		Wed Feb  9 14:36:27 2005

#	Modifying user name:	nsalim
#	Modification time:	Wed Feb  9 14:46:43 2005

@<TRIPOS>MOLECULE
Sc26
  101   104     8     1     0
SMALL
GASTEIGER


@<TRIPOS>ATOM
      1 C1          3.781534   19.227839   10.461006 C.ar      1 PHENYL     -0.021282 
      2 C           2.826779   20.155407   10.894356 C.ar      1 PHENYL     -0.056372 
      3 C           1.468439   19.950160   10.635649 C.ar      1 PHENYL     -0.061429 
      4 C           1.055167   18.812233    9.937752 C.ar      1 PHENYL     -0.061740 
      5 C           2.003350   17.884048    9.498846 C.ar      1 PHENYL     -0.061429 
      6 C           3.361520   18.091952    9.758152 C.ar      1 PHENYL     -0.056372 
      7 C7          5.263232   19.483668   10.768563 C.3       1 PHENYL      0.083653 
      8 O8          6.101627   18.393939   10.330279 O.3       1 PHENYL     -0.295140 
      9 C9          7.407001   18.582113   10.571010 C.2       1 PHENYL      0.353123 
     10 N10         8.175730   17.563801   10.131520 N.am      1 PHENYL     -0.280327 
     11 C11         9.626089   17.601564   10.319345 C.3       1 PHENYL      0.098691 
     12 C12        10.323293   16.715820    9.304005 C.2       8 <8>         0.233463 
     13 N13        11.362175   17.201512    8.579743 N.am      8 <8>        -0.308094 
     14 C14        12.062276   16.375103    7.586502 C.3       8 <8>         0.054958 
     15 C15        11.097894   15.961541    6.430157 C.3       8 <8>         0.097537 
     16 C16        11.790875   15.203505    5.260123 C.3       8 <8>         0.112915 
     17 C17        10.956334   15.368060    4.006638 C.2       8 <8>         0.233264 
     18 N18        11.239611   16.360532    3.130723 N.am      8 <8>        -0.302393 
     19 C19        10.515907   16.430996    1.858952 C.3       8 <8>         0.101694 
     20 C20        11.067950   15.374824    0.924304 C.2       8 <8>         0.233871 
     21 N21        10.360315   15.036885   -0.179268 N.am      8 <8>        -0.309666 
     22 C22        10.865965   14.024361   -1.104125 C.3       8 <8>         0.036886 
     23 C          10.482977   14.403472   -2.540930 C.ar      2 PHENYL     -0.030323 
     24 C           9.805952   13.508652   -3.377824 C.ar      2 PHENYL     -0.057077 
     25 C           9.469915   13.882204   -4.682592 C.ar      2 PHENYL     -0.061452 
     26 C           9.808901   15.152365   -5.157321 C.ar      2 PHENYL     -0.061740 
     27 C          10.484490   16.049057   -4.325011 C.ar      2 PHENYL     -0.061452 
     28 C          10.820050   15.673741   -3.021009 C.ar      2 PHENYL     -0.057077 
     29 O29         7.844013   19.576708   11.128702 O.2       1 PHENYL     -0.241338 
     30 O30         9.905642   15.575729    9.186526 O.2       8 <8>        -0.273780 
     31 O31        10.047852   14.575113    3.815995 O.2       8 <8>        -0.273988 
     32 O32        12.142595   14.859491    1.190266 O.2       8 <8>        -0.273762 
     33 C33        12.790520   15.206457    8.315097 C.3       8 <8>        -0.006715 
     34 C          13.965931   14.545732    7.565705 C.ar      3 PHENYL     -0.045529 
     35 C          14.058742   13.148908    7.510805 C.ar      3 PHENYL     -0.058512 
     36 C          15.097077   12.523840    6.813755 C.ar      3 PHENYL     -0.061501 
     37 C          16.039847   13.291848    6.127451 C.ar      3 PHENYL     -0.061742 
     38 C          15.976949   14.685052    6.201260 C.ar      3 PHENYL     -0.061501 
     39 C          14.973498   15.303408    6.953291 C.ar      3 PHENYL     -0.058512 
     40 C40         9.960213   17.102028   11.746974 C.3       1 PHENYL     -0.038003 
     41 H1          3.139427   21.042916   11.435954 H         1 PHENYL      0.062101 
     42 H2          0.734614   20.674364   10.976554 H         1 PHENYL      0.061767 
     43 C1         10.549972   17.840662    1.189592 C.3       4 ISOPROPYL   -0.019730 
     44 C2         11.961861   18.235503    0.668887 C.3       4 ISOPROPYL   -0.060525 
     45 C3          9.998132   18.925415    2.156180 C.3       4 ISOPROPYL   -0.060525 
     46 O1         10.429406   17.144035    5.943556 O.3       5 OH         -0.387906 
     47 N47        11.957260   13.754346    5.544927 N.3       8 <8>        -0.299550 
     48 H3          0.000427   18.649821    9.737083 H         1 PHENYL      0.061758 
     49 C49        12.756763   13.036247    4.520158 C.3       7 <7>         0.021997 
     50 C          13.089451   11.565800    4.824374 C.ar      6 PHENYL     -0.033558 
     51 C          14.059441   10.931829    4.037900 C.ar      6 PHENYL     -0.057350 
     52 C          14.431528    9.607994    4.287668 C.ar      6 PHENYL     -0.061461 
     53 C          13.824945    8.897700    5.326311 C.ar      6 PHENYL     -0.061741 
     54 C          12.842428    9.514763    6.104618 C.ar      6 PHENYL     -0.061461 
     55 C          12.473132   10.839364    5.851540 C.ar      6 PHENYL     -0.057350 
     56 H4          1.684167   16.999865    8.955252 H         1 PHENYL      0.061767 
     57 H5          4.083794   17.362192    9.407376 H         1 PHENYL      0.062101 
     58 H6          5.358734   19.623480   11.858192 H         1 PHENYL      0.061655 
     59 H7          5.546906   20.417104   10.254738 H         1 PHENYL      0.061655 
     60 H8          7.763683   16.757215    9.701454 H         1 PHENYL      0.151713 
     61 H9          9.987903   18.638136   10.214520 H         1 PHENYL      0.059235 
     62 H10        11.676885   18.144458    8.710807 H         8 <8>         0.149127 
     63 H11        12.822873   17.018674    7.119347 H         8 <8>         0.052746 
     64 H12        10.294568   15.314823    6.811189 H         8 <8>         0.063235 
     65 H13        12.778446   15.658370    5.090919 H         8 <8>         0.058313 
     66 H14        11.998709   16.987829    3.292680 H         8 <8>         0.149509 
     67 H15         9.454480   16.190410    2.040105 H         8 <8>         0.059702 
     68 H16         9.462899   15.439254   -0.369961 H         8 <8>         0.149075 
     69 H17        10.453920   13.043469   -0.819774 H         8 <8>         0.051152 
     70 H18        11.965315   13.952466   -1.085260 H         8 <8>         0.051152 
     71 H19         9.537482   12.519447   -3.021104 H         2 PHENYL      0.062079 
     72 H20         8.944912   13.184823   -5.328424 H         2 PHENYL      0.061767 
     73 H21         9.548179   15.441813   -6.170785 H         2 PHENYL      0.061758 
     74 H22        10.748687   17.036524   -4.691110 H         2 PHENYL      0.061767 
     75 H23        11.345623   16.373035   -2.378170 H         2 PHENYL      0.062079 
     76 H24        12.042369   14.452386    8.599490 H         8 <8>         0.033193 
     77 H25        13.229106   15.606092    9.242790 H         8 <8>         0.033193 
     78 H26        13.324148   12.533047    8.017799 H         3 PHENYL      0.062030 
     79 H27        15.171148   11.440527    6.802894 H         3 PHENYL      0.061766 
     80 H28        16.817250   12.808695    5.543354 H         3 PHENYL      0.061758 
     81 H29        16.712668   15.287830    5.677248 H         3 PHENYL      0.061766 
     82 H30        15.003155   16.381052    7.059586 H         3 PHENYL      0.062030 
     83 H31         9.483703   17.750226   12.498624 H         1 PHENYL      0.025219 
     84 H32        11.049321   17.110128   11.910220 H         1 PHENYL      0.025219 
     85 H33         9.587909   16.074770   11.883608 H         1 PHENYL      0.025219 
     86 H34         9.883103   17.815513    0.308812 H         4 ISOPROPYL    0.031802 
     87 H35        12.342822   17.484849   -0.040236 H         4 ISOPROPYL    0.023302 
     88 H36        12.685340   18.337441    1.489924 H         4 ISOPROPYL    0.023302 
     89 H37        11.909472   19.201353    0.142300 H         4 ISOPROPYL    0.023302 
     90 H38         9.941781   19.899723    1.645988 H         4 ISOPROPYL    0.023302 
     91 H39        10.645554   19.035643    3.038477 H         4 ISOPROPYL    0.023302 
     92 H40         8.986438   18.656396    2.497848 H         4 ISOPROPYL    0.023302 
     93 H41        11.020315   17.801661    5.592833 H         5 OH          0.209942 
     94 H42        10.976627   13.300007    5.622439 H         8 <8>         0.123028 
     95 H43        13.720180   13.557468    4.406414 H         7 <7>         0.047363 
     96 H44        12.244811   13.050883    3.544049 H         7 <7>         0.047363 
     97 H45        14.533187   11.470499    3.223097 H         6 PHENYL      0.062070 
     98 H46        15.191174    9.131725    3.675179 H         6 PHENYL      0.061767 
     99 H47        14.115212    7.870881    5.527072 H         6 PHENYL      0.061758 
    100 H48        12.365000    8.962959    6.908759 H         6 PHENYL      0.061767 
    101 H49        11.704868   11.286448    6.469636 H         6 PHENYL      0.062070 
@<TRIPOS>BOND
     1    1    2 ar   
     2    1    6 ar   
     3    6    5 ar   
     4    5    4 ar   
     5    4    3 ar   
     6    3    2 ar   
     7    1    7 1    
     8    7    8 1    
     9    8    9 1    
    10    9   10 am   
    11   10   11 1    
    12   12   11 1    
    13   12   13 am   
    14   13   14 1    
    15   14   15 1    
    16   15   16 1    
    17   16   17 1    
    18   17   18 am   
    19   18   19 1    
    20   19   20 1    
    21   20   21 am   
    22   21   22 1    
    23   23   24 ar   
    24   23   28 ar   
    25   28   27 ar   
    26   27   26 ar   
    27   26   25 ar   
    28   25   24 ar   
    29   22   23 1    
    30    9   29 2    
    31   12   30 2    
    32   17   31 2    
    33   20   32 2    
    34   14   33 1    
    35   34   35 ar   
    36   34   39 ar   
    37   39   38 ar   
    38   38   37 ar   
    39   37   36 ar   
    40   36   35 ar   
    41   33   34 1    
    42   11   40 1    
    43    2   41 1    
    44    3   42 1    
    45   43   44 1    
    46   43   45 1    
    47   19   43 1    
    48   16   47 1    
    49   15   46 1    
    50   49   47 1    
    51    4   48 1    
    52   50   51 ar   
    53   50   55 ar   
    54   55   54 ar   
    55   54   53 ar   
    56   53   52 ar   
    57   52   51 ar   
    58   49   50 1    
    59    5   56 1    
    60    6   57 1    
    61    7   58 1    
    62    7   59 1    
    63   10   60 1    
    64   11   61 1    
    65   13   62 1    
    66   14   63 1    
    67   15   64 1    
    68   16   65 1    
    69   18   66 1    
    70   19   67 1    
    71   21   68 1    
    72   22   69 1    
    73   22   70 1    
    74   24   71 1    
    75   25   72 1    
    76   26   73 1    
    77   27   74 1    
    78   28   75 1    
    79   33   76 1    
    80   33   77 1    
    81   35   78 1    
    82   36   79 1    
    83   37   80 1    
    84   38   81 1    
    85   39   82 1    
    86   40   83 1    
    87   40   84 1    
    88   40   85 1    
    89   43   86 1    
    90   44   87 1    
    91   44   88 1    
    92   44   89 1    
    93   45   90 1    
    94   45   91 1    
    95   45   92 1    
    96   46   93 1    
    97   47   94 1    
    98   49   95 1    
    99   49   96 1    
   100   51   97 1    
   101   52   98 1    
   102   53   99 1    
   103   54  100 1    
   104   55  101 1    
@<TRIPOS>SUBSTRUCTURE
     1 PHENYL      1 PERM              0 ****  ****    1  
     2 PHENYL     23 PERM              0 ****  ****    1  
     3 PHENYL     34 PERM              0 ****  ****    1  
     4 ISOPROPYL    43 PERM              0 ****  ****    1  
     5 OH         46 PERM              0 ****  ****    1  
     6 PHENYL     50 PERM              0 ****  ****    1  
     7 ****       49 PERM              0 ****  ****    2 ROOT 
     8 ****       12 PERM              0 ****  ****    6  
@<TRIPOS>NORMAL
@<TRIPOS>FF_PBC
FORCE_FIELD_SETUP_FEATURE Force Field Setup information
v1.0  0 0.000000 0.000000 0.000000 0.000000 0.000000 0.000000 NONE 0 0 0 0 1 0 0 0 0 0 0 0 0
