#	Name:			Sc28
#	Creating user name:	nsalim
#	Creation time:		Wed Feb  9 14:04:35 2005

#	Modifying user name:	nsalim
#	Modification time:	Wed Feb  9 14:04:45 2005

@<TRIPOS>MOLECULE
Sc28
  110   113     8     1     0
SMALL
GASTEIGER


@<TRIPOS>ATOM
      1 C1          7.599069   15.242192   15.397743 C.ar      1 PHENYL     -0.021282 
      2 C           6.862262   15.431223   16.573269 C.ar      1 PHENYL     -0.056372 
      3 C           6.991725   14.540889   17.643212 C.ar      1 PHENYL     -0.061429 
      4 C           7.855420   13.447142   17.540901 C.ar      1 PHENYL     -0.061740 
      5 C           8.582986   13.244411   16.365011 C.ar      1 PHENYL     -0.061429 
      6 C           8.451294   14.136187   15.296087 C.ar      1 PHENYL     -0.056372 
      7 C7          7.461827   16.247070   14.245641 C.3       1 PHENYL      0.083653 
      8 O8          8.591294   16.178714   13.349120 O.3       1 PHENYL     -0.295140 
      9 C9          8.547414   17.076890   12.354195 C.2       1 PHENYL      0.353139 
     10 N10         9.638371   17.037449   11.560403 N.am      1 PHENYL     -0.279796 
     11 C11         9.811254   18.020304   10.489035 C.3       1 PHENYL      0.104015 
     12 C12        10.894585   17.565494    9.526102 C.2       1 PHENYL      0.233995 
     13 N13        10.607864   16.574964    8.646626 N.am      1 PHENYL     -0.308078 
     14 C14        11.611904   16.134797    7.672178 C.3       1 PHENYL      0.054959 
     15 C15        10.888451   15.593608    6.399156 C.3       1 PHENYL      0.097537 
     16 C16        11.837274   15.207474    5.226038 C.3       1 PHENYL      0.112915 
     17 C17        11.087678   15.352259    3.917613 C.2       1 PHENYL      0.233264 
     18 N18        11.215743   16.480550    3.180486 N.am      1 PHENYL     -0.302393 
     19 C19        10.567675   16.558685    1.868693 C.3       1 PHENYL      0.101694 
     20 C20        11.306689   15.664119    0.894696 C.2       1 PHENYL      0.233871 
     21 N21        10.697225   15.302563   -0.258620 N.am      1 PHENYL     -0.309666 
     22 C22        11.386209   14.441566   -1.217114 C.3       1 PHENYL      0.036886 
     23 C          10.889123   14.742250   -2.637642 C.ar      2 PHENYL     -0.030323 
     24 C          10.351562   13.739380   -3.452945 C.ar      2 PHENYL     -0.057077 
     25 C           9.906784   14.044130   -4.742968 C.ar      2 PHENYL     -0.061452 
     26 C           9.997014   15.353236   -5.224371 C.ar      2 PHENYL     -0.061740 
     27 C          10.532132   16.357831   -4.413336 C.ar      2 PHENYL     -0.061452 
     28 C          10.976268   16.051309   -3.123850 C.ar      2 PHENYL     -0.057077 
     29 O29         7.614857   17.849890   12.200651 O.2       1 PHENYL     -0.241337 
     30 O30        11.997472   18.085774    9.552692 O.2       1 PHENYL     -0.273760 
     31 O31        10.386317   14.420698    3.556265 O.2       1 PHENYL     -0.273988 
     32 O32        12.437699   15.297261    1.172960 O.2       1 PHENYL     -0.273762 
     33 C33        12.534866   15.108225    8.389750 C.3       1 PHENYL     -0.006715 
     34 C          13.862649   14.774659    7.684452 C.ar      3 PHENYL     -0.045529 
     35 C          14.257330   13.440005    7.527358 C.ar      3 PHENYL     -0.058512 
     36 C          15.465016   13.120103    6.899756 C.ar      3 PHENYL     -0.061501 
     37 C          16.267230   14.132500    6.369060 C.ar      3 PHENYL     -0.061742 
     38 C          15.886977   15.467242    6.526885 C.ar      3 PHENYL     -0.061501 
     39 C          14.712209   15.784841    7.215002 C.ar      3 PHENYL     -0.058512 
     40 C1          9.994540   19.481191   11.024952 C.3       4 ISOPROPYL   -0.017072 
     41 C41        11.194090   19.720322   11.997499 C.3       4 ISOPROPYL   -0.051174 
     42 C42        10.065125   20.487690    9.837329 C.3       4 ISOPROPYL   -0.060281 
     43 C1         10.447662   18.006081    1.295900 C.3       5 ISOPROPYL   -0.019730 
     44 C2         11.822866   18.618776    0.904762 C.3       5 ISOPROPYL   -0.060525 
     45 C3          9.689998   18.937614    2.282717 C.3       5 ISOPROPYL   -0.060525 
     46 O1          9.923496   16.578769    5.976264 O.3       6 OH         -0.387906 
     47 N47        12.333743   13.812187    5.344907 N.3       1 PHENYL     -0.299550 
     48 H1          6.183223   16.273561   16.661056 H         1 PHENYL      0.062101 
     49 C49        13.368934   13.461256    4.340427 C.3       8 <8>         0.021997 
     50 C          14.036553   12.086320    4.512332 C.ar      7 PHENYL     -0.033558 
     51 C          15.205739   11.823300    3.787751 C.ar      7 PHENYL     -0.057350 
     52 C          15.874755   10.603827    3.924925 C.ar      7 PHENYL     -0.061461 
     53 C          15.370826    9.625155    4.784738 C.ar      7 PHENYL     -0.061741 
     54 C          14.195964    9.871070    5.499645 C.ar      7 PHENYL     -0.061461 
     55 C          13.532102   11.093938    5.363050 C.ar      7 PHENYL     -0.057350 
     56 C56        11.103348   18.959145   13.348528 C.3       4 ISOPROPYL   -0.064964 
     57 H2          6.421352   14.698787   18.553877 H         1 PHENYL      0.061767 
     58 H3          7.960385   12.756922   18.372597 H         1 PHENYL      0.061758 
     59 H4          9.251259   12.392747   16.282059 H         1 PHENYL      0.061767 
     60 H5          9.016479   13.961500   14.386265 H         1 PHENYL      0.062101 
     61 H6          7.394245   17.257817   14.682415 H         1 PHENYL      0.061655 
     62 H7          6.524671   16.017081   13.713208 H         1 PHENYL      0.061655 
     63 H8         10.347394   16.344968   11.710890 H         1 PHENYL      0.151734 
     64 H9          8.881837   18.024785    9.894383 H         1 PHENYL      0.059784 
     65 H10         9.715971   16.118723    8.654869 H         1 PHENYL      0.149127 
     66 H11        12.186426   17.016097    7.349932 H         1 PHENYL      0.052746 
     67 H12        10.292485   14.707415    6.668059 H         1 PHENYL      0.063235 
     68 H13        12.688987   15.904059    5.227633 H         1 PHENYL      0.058313 
     69 H14        11.808486   17.226288    3.477919 H         1 PHENYL      0.149509 
     70 H15         9.540702   16.166683    1.966677 H         1 PHENYL      0.059702 
     71 H16         9.755857   15.577977   -0.462499 H         1 PHENYL      0.149075 
     72 H17        11.213909   13.389495   -0.941066 H         1 PHENYL      0.051152 
     73 H18        12.473426   14.621590   -1.220950 H         1 PHENYL      0.051152 
     74 H19        10.276123   12.719160   -3.090906 H         2 PHENYL      0.062079 
     75 H20         9.490773   13.263065   -5.372275 H         2 PHENYL      0.061767 
     76 H21         9.651949   15.589356   -6.226541 H         2 PHENYL      0.061758 
     77 H22        10.603004   17.375634   -4.784887 H         2 PHENYL      0.061767 
     78 H23        11.391197   16.834486   -2.496699 H         2 PHENYL      0.062079 
     79 H24        11.943825   14.200042    8.582596 H         1 PHENYL      0.033193 
     80 H25        12.828230   15.523388    9.366289 H         1 PHENYL      0.033193 
     81 H26        13.629955   12.637033    7.898709 H         3 PHENYL      0.062030 
     82 H27        15.780785   12.084196    6.821362 H         3 PHENYL      0.061766 
     83 H28        17.181149   13.882700    5.838903 H         3 PHENYL      0.061758 
     84 H29        16.507997   16.258677    6.118250 H         3 PHENYL      0.061766 
     85 H30        14.479477   16.829185    7.386548 H         3 PHENYL      0.062030 
     86 H31         9.084810   19.747289   11.589296 H         4 ISOPROPYL    0.032061 
     87 H32        11.210282   20.795079   12.247098 H         4 ISOPROPYL    0.026590 
     88 H33        12.154669   19.487798   11.514843 H         4 ISOPROPYL    0.026590 
     89 H34        10.039926   21.525160   10.206644 H         4 ISOPROPYL    0.023311 
     90 H35         9.208399   20.352786    9.158525 H         4 ISOPROPYL    0.023311 
     91 H36        10.990427   20.358394    9.257052 H         4 ISOPROPYL    0.023311 
     92 H37         9.847906   17.956467    0.369166 H         5 ISOPROPYL    0.031802 
     93 H38        12.336572   17.988476    0.162675 H         5 ISOPROPYL    0.023302 
     94 H39        12.479531   18.733165    1.778713 H         5 ISOPROPYL    0.023302 
     95 H40        11.675922   19.614188    0.457288 H         5 ISOPROPYL    0.023302 
     96 H41         9.526589   19.925771    1.824695 H         5 ISOPROPYL    0.023302 
     97 H42        10.258771   19.080751    3.213153 H         5 ISOPROPYL    0.023302 
     98 H43         8.707754   18.509542    2.536917 H         5 ISOPROPYL    0.023302 
     99 H44        10.311945   17.413702    5.735841 H         6 OH          0.209942 
    100 H45        11.493486   13.134896    5.248593 H         1 PHENYL      0.123028 
    101 H46        14.173809   14.210829    4.395543 H         8 <8>         0.047363 
    102 H47        12.948669   13.487443    3.321373 H         8 <8>         0.047363 
    103 H48        15.603131   12.572222    3.109656 H         7 PHENYL      0.062070 
    104 H49        16.785338   10.417130    3.363810 H         7 PHENYL      0.061767 
    105 H50        15.889169    8.677721    4.896057 H         7 PHENYL      0.061758 
    106 H51        13.798737    9.109734    6.164138 H         7 PHENYL      0.061767 
    107 H52        12.625073   11.252871    5.932172 H         7 PHENYL      0.062070 
    108 H53        11.313575   17.888998   13.224568 H         4 ISOPROPYL    0.022987 
    109 H54        10.107277   19.081139   13.801671 H         4 ISOPROPYL    0.022987 
    110 H55        11.852632   19.357187   14.051772 H         4 ISOPROPYL    0.022987 
@<TRIPOS>BOND
     1    1    2 ar   
     2    1    6 ar   
     3    6    5 ar   
     4    5    4 ar   
     5    4    3 ar   
     6    3    2 ar   
     7    1    7 1    
     8    7    8 1    
     9    8    9 1    
    10    9   10 am   
    11   10   11 1    
    12   11   12 1    
    13   12   13 am   
    14   13   14 1    
    15   14   15 1    
    16   15   16 1    
    17   16   17 1    
    18   17   18 am   
    19   18   19 1    
    20   19   20 1    
    21   20   21 am   
    22   21   22 1    
    23   23   24 ar   
    24   23   28 ar   
    25   28   27 ar   
    26   27   26 ar   
    27   26   25 ar   
    28   25   24 ar   
    29   22   23 1    
    30    9   29 2    
    31   12   30 2    
    32   17   31 2    
    33   20   32 2    
    34   14   33 1    
    35   34   35 ar   
    36   34   39 ar   
    37   39   38 ar   
    38   38   37 ar   
    39   37   36 ar   
    40   36   35 ar   
    41   33   34 1    
    42   40   41 1    
    43   40   42 1    
    44   11   40 1    
    45   43   44 1    
    46   43   45 1    
    47   19   43 1    
    48   16   47 1    
    49   15   46 1    
    50   49   47 1    
    51    2   48 1    
    52   50   51 ar   
    53   50   55 ar   
    54   55   54 ar   
    55   54   53 ar   
    56   53   52 ar   
    57   52   51 ar   
    58   49   50 1    
    59   41   56 1    
    60    3   57 1    
    61    4   58 1    
    62    5   59 1    
    63    6   60 1    
    64    7   61 1    
    65    7   62 1    
    66   10   63 1    
    67   11   64 1    
    68   13   65 1    
    69   14   66 1    
    70   15   67 1    
    71   16   68 1    
    72   18   69 1    
    73   19   70 1    
    74   21   71 1    
    75   22   72 1    
    76   22   73 1    
    77   24   74 1    
    78   25   75 1    
    79   26   76 1    
    80   27   77 1    
    81   28   78 1    
    82   33   79 1    
    83   33   80 1    
    84   35   81 1    
    85   36   82 1    
    86   37   83 1    
    87   38   84 1    
    88   39   85 1    
    89   40   86 1    
    90   41   87 1    
    91   41   88 1    
    92   42   89 1    
    93   42   90 1    
    94   42   91 1    
    95   43   92 1    
    96   44   93 1    
    97   44   94 1    
    98   44   95 1    
    99   45   96 1    
   100   45   97 1    
   101   45   98 1    
   102   46   99 1    
   103   47  100 1    
   104   49  101 1    
   105   49  102 1    
   106   51  103 1    
   107   52  104 1    
   108   53  105 1    
   109   54  106 1    
   110   55  107 1    
   111   56  108 1    
   112   56  109 1    
   113   56  110 1    
@<TRIPOS>SUBSTRUCTURE
     1 PHENYL      1 PERM              0 ****  ****    6  
     2 PHENYL     23 PERM              0 ****  ****    1  
     3 PHENYL     34 PERM              0 ****  ****    1  
     4 ISOPROPYL    40 PERM              0 ****  ****    1  
     5 ISOPROPYL    43 PERM              0 ****  ****    1  
     6 OH         46 PERM              0 ****  ****    1  
     7 PHENYL     50 PERM              0 ****  ****    1  
     8 ****       49 PERM              0 ****  ****    2 ROOT 
@<TRIPOS>NORMAL
@<TRIPOS>FF_PBC
FORCE_FIELD_SETUP_FEATURE Force Field Setup information
v1.0  0 0.000000 0.000000 0.000000 0.000000 0.000000 0.000000 NONE 0 0 0 0 1 0 0 0 0 0 0 0 0
