#	Name:			Sc3
#	Creating user name:	nsalim
#	Creation time:		Wed Feb  9 14:09:15 2005

#	Modifying user name:	nsalim
#	Modification time:	Wed Feb  9 14:09:25 2005

@<TRIPOS>MOLECULE
Sc3
  104   107     7     1     0
SMALL
GASTEIGER


@<TRIPOS>ATOM
      1 C1          8.146588   14.104879   15.120027 C.ar      1 PHENYL     -0.021282 
      2 C           7.416245   14.098181   16.314609 C.ar      1 PHENYL     -0.056372 
      3 C           7.790417   13.260195   17.369343 C.ar      1 PHENYL     -0.061429 
      4 C           8.895273   12.415323   17.233538 C.ar      1 PHENYL     -0.061740 
      5 C           9.618081   12.404214   16.037589 C.ar      1 PHENYL     -0.061429 
      6 C           9.239756   13.240904   14.983329 C.ar      1 PHENYL     -0.056372 
      7 C7          7.753974   15.049901   13.975479 C.3       1 PHENYL      0.083653 
      8 O8          8.929525   15.407110   13.221818 O.3       1 PHENYL     -0.295140 
      9 C9          8.697554   16.243648   12.200325 C.2       1 PHENYL      0.353139 
     10 N10         9.826311   16.528549   11.518476 N.am      1 PHENYL     -0.279805 
     11 C11         9.819927   17.448913   10.377713 C.3       1 PHENYL      0.103775 
     12 C12        10.783801   16.938682    9.325961 C.2       1 PHENYL      0.233986 
     13 N13        10.833702   17.526223    8.103491 N.am      1 PHENYL     -0.308078 
     14 C14        11.721566   17.015499    7.047446 C.3       1 PHENYL      0.054968 
     15 C15        11.064065   15.711297    6.496634 C.3       1 PHENYL      0.097751 
     16 C16        11.822642   14.979846    5.343706 C.3       1 PHENYL      0.114200 
     17 C17        11.156682   15.224145    4.004721 C.2       1 PHENYL      0.233488 
     18 N18        11.318912   16.415847    3.381379 N.am      1 PHENYL     -0.302386 
     19 C19        10.705582   16.638753    2.067640 C.3       1 PHENYL      0.101695 
     20 C20        11.555298   16.005455    0.985579 C.2       1 PHENYL      0.233871 
     21 N21        10.995083   15.720739   -0.214101 N.am      1 PHENYL     -0.309666 
     22 C22        11.796914   15.096654   -1.264227 C.3       1 PHENYL      0.036886 
     23 C          11.191872   15.381940   -2.645685 C.ar      2 PHENYL     -0.030323 
     24 C          10.851128   14.346260   -3.523668 C.ar      2 PHENYL     -0.057077 
     25 C          10.306486   14.636677   -4.778222 C.ar      2 PHENYL     -0.061452 
     26 C          10.096774   15.964577   -5.160616 C.ar      2 PHENYL     -0.061740 
     27 C          10.431906   17.001812   -4.285824 C.ar      2 PHENYL     -0.061452 
     28 C          10.977992   16.709310   -3.032713 C.ar      2 PHENYL     -0.057077 
     29 O29         7.592161   16.689272   11.935069 O.2       1 PHENYL     -0.241337 
     30 O30        11.488406   15.993082    9.638826 O.2       1 PHENYL     -0.273760 
     31 O31        10.483279   14.331266    3.514779 O.2       1 PHENYL     -0.273978 
     32 O32        12.730903   15.774875    1.219310 O.2       1 PHENYL     -0.273762 
     33 C33        13.176729   16.858162    7.590835 C.3       1 PHENYL     -0.006715 
     34 C          14.281385   17.097691    6.547248 C.ar      3 PHENYL     -0.045529 
     35 C          15.200857   16.087609    6.240286 C.ar      3 PHENYL     -0.058512 
     36 C          16.161379   16.278155    5.243121 C.ar      3 PHENYL     -0.061501 
     37 C          16.238953   17.501796    4.572886 C.ar      3 PHENYL     -0.061742 
     38 C          15.356643   18.532715    4.907939 C.ar      3 PHENYL     -0.061501 
     39 C          14.390516   18.333926    5.898922 C.ar      3 PHENYL     -0.058512 
     40 C1         10.198444   18.887989   10.842440 C.3       4 ISOPROPYL   -0.019657 
     41 C2         11.634093   18.943181   11.435979 C.3       4 ISOPROPYL   -0.060524 
     42 C3          9.173924   19.431123   11.876919 C.3       4 ISOPROPYL   -0.060524 
     43 C1         10.434655   18.139556    1.737023 C.3       5 ISOPROPYL   -0.019730 
     44 C2         11.736818   18.951872    1.483427 C.3       5 ISOPROPYL   -0.060525 
     45 C3          9.580787   18.805093    2.851838 C.3       5 ISOPROPYL   -0.060525 
     46 O1          9.682801   15.974459    6.166295 O.3       6 OH         -0.387897 
     47 N47        11.916518   13.532747    5.666866 N.3       1 PHENYL     -0.308420 
     48 C          13.035033   13.066483    6.401264 C.ar      7 PHENYL     -0.157334 
     49 C          14.221552   12.739961    5.713115 C.3       7 PHENYL     -0.272353 
     50 C          15.348193   12.426180    6.491929 C.ar      7 PHENYL     -0.234228 
     51 C          15.280259   12.349186    7.885894 C.ar      7 PHENYL     -0.096632 
     52 C          14.069378   12.585714    8.538745 C.ar      7 PHENYL     -0.065890 
     53 C          12.940767   12.924150    7.789389 C.ar      7 PHENYL     -0.079902 
     54 H1          6.552182   14.744769   16.429973 H         1 PHENYL      0.062101 
     55 H2          7.222760   13.265368   18.294950 H         1 PHENYL      0.061767 
     56 H3          9.191066   11.769065   18.054522 H         1 PHENYL      0.061758 
     57 H4         10.474075   11.745279   15.927340 H         1 PHENYL      0.061767 
     58 H5          9.802507   13.214059   14.055570 H         1 PHENYL      0.062101 
     59 H6          7.286626   15.956359   14.394560 H         1 PHENYL      0.061655 
     60 H7          7.023937   14.522345   13.340523 H         1 PHENYL      0.061655 
     61 H8         10.698740   16.111923   11.785695 H         1 PHENYL      0.151734 
     62 H9          8.828475   17.464666    9.895391 H         1 PHENYL      0.059775 
     63 H10        10.216525   18.281057    7.875829 H         1 PHENYL      0.149127 
     64 H11        11.738647   17.743056    6.220203 H         1 PHENYL      0.052747 
     65 H12        11.006488   15.012207    7.341291 H         1 PHENYL      0.063244 
     66 H13        12.848057   15.356706    5.246626 H         1 PHENYL      0.058547 
     67 H14        11.920115   17.113455    3.767885 H         1 PHENYL      0.149509 
     68 H15         9.722391   16.137885    2.050155 H         1 PHENYL      0.059702 
     69 H16        10.022652   15.885384   -0.391242 H         1 PHENYL      0.149075 
     70 H17        11.859139   14.015143   -1.067265 H         1 PHENYL      0.051152 
     71 H18        12.821389   15.502054   -1.279182 H         1 PHENYL      0.051152 
     72 H19        11.007201   13.311011   -3.238736 H         2 PHENYL      0.062079 
     73 H20        10.046099   13.830173   -5.457164 H         2 PHENYL      0.061767 
     74 H21         9.674727   16.190036   -6.135515 H         2 PHENYL      0.061758 
     75 H22        10.268475   18.034290   -4.579896 H         2 PHENYL      0.061767 
     76 H23        11.237779   17.518027   -2.356640 H         2 PHENYL      0.062079 
     77 H24        13.301495   15.868602    8.055935 H         1 PHENYL      0.033193 
     78 H25        13.349784   17.619068    8.368006 H         1 PHENYL      0.033193 
     79 H26        15.174782   15.143936    6.774857 H         3 PHENYL      0.062030 
     80 H27        16.844538   15.472065    4.991244 H         3 PHENYL      0.061766 
     81 H28        16.982946   17.650445    3.796299 H         3 PHENYL      0.061758 
     82 H29        15.423069   19.489261    4.398308 H         3 PHENYL      0.061766 
     83 H30        13.727514   19.150627    6.165380 H         3 PHENYL      0.062030 
     84 H31        10.169260   19.558850    9.966027 H         4 ISOPROPYL    0.031803 
     85 H32        12.376243   18.588406   10.704686 H         4 ISOPROPYL    0.023302 
     86 H33        11.707949   18.321572   12.340857 H         4 ISOPROPYL    0.023302 
     87 H34        11.891399   19.978767   11.708252 H         4 ISOPROPYL    0.023302 
     88 H35         9.400902   20.479909   12.124568 H         4 ISOPROPYL    0.023302 
     89 H36         9.207987   18.844664   12.807365 H         4 ISOPROPYL    0.023302 
     90 H37         8.152333   19.387020   11.468278 H         4 ISOPROPYL    0.023302 
     91 H38         9.846704   18.178810    0.801716 H         5 ISOPROPYL    0.031802 
     92 H39        12.316688   18.516884    0.655055 H         5 ISOPROPYL    0.023302 
     93 H40        12.375700   18.983010    2.377336 H         5 ISOPROPYL    0.023302 
     94 H41        11.484150   19.987862    1.208982 H         5 ISOPROPYL    0.023302 
     95 H42         9.311502   19.833618    2.564667 H         5 ISOPROPYL    0.023302 
     96 H43        10.135796   18.845549    3.800746 H         5 ISOPROPYL    0.023302 
     97 H44         8.650567   18.238529    3.014291 H         5 ISOPROPYL    0.023302 
     98 H45         9.571205   16.627336    5.484464 H         6 OH          0.209942 
     99 H46        11.799488   12.928069    4.776249 H         1 PHENYL      0.125437 
    100 H47        14.481957   13.485048    4.942822 H         7 PHENYL     -0.197448 
    101 H48        16.293897   12.233918    5.994811 H         7 PHENYL      0.020694 
    102 H49        16.168190   12.103603    8.458917 H         7 PHENYL      0.058860 
    103 H50        14.003960   12.507550    9.619123 H         7 PHENYL      0.061626 
    104 H51        11.990722   13.074128    8.288902 H         7 PHENYL      0.060302 
@<TRIPOS>BOND
     1    1    2 ar   
     2    1    6 ar   
     3    6    5 ar   
     4    5    4 ar   
     5    4    3 ar   
     6    3    2 ar   
     7    1    7 1    
     8    7    8 1    
     9    8    9 1    
    10    9   10 am   
    11   10   11 1    
    12   11   12 1    
    13   12   13 am   
    14   13   14 1    
    15   14   15 1    
    16   15   16 1    
    17   16   17 1    
    18   17   18 am   
    19   18   19 1    
    20   19   20 1    
    21   20   21 am   
    22   21   22 1    
    23   23   24 ar   
    24   23   28 ar   
    25   28   27 ar   
    26   27   26 ar   
    27   26   25 ar   
    28   25   24 ar   
    29   22   23 1    
    30    9   29 2    
    31   12   30 2    
    32   17   31 2    
    33   20   32 2    
    34   14   33 1    
    35   34   35 ar   
    36   34   39 ar   
    37   39   38 ar   
    38   38   37 ar   
    39   37   36 ar   
    40   36   35 ar   
    41   33   34 1    
    42   40   41 1    
    43   40   42 1    
    44   11   40 1    
    45   43   44 1    
    46   43   45 1    
    47   19   43 1    
    48   16   47 1    
    49   15   46 1    
    50   48   49 ar   
    51   48   53 ar   
    52   53   52 ar   
    53   52   51 ar   
    54   51   50 ar   
    55   50   49 ar   
    56   47   48 1    
    57    2   54 1    
    58    3   55 1    
    59    4   56 1    
    60    5   57 1    
    61    6   58 1    
    62    7   59 1    
    63    7   60 1    
    64   10   61 1    
    65   11   62 1    
    66   13   63 1    
    67   14   64 1    
    68   15   65 1    
    69   16   66 1    
    70   18   67 1    
    71   19   68 1    
    72   21   69 1    
    73   22   70 1    
    74   22   71 1    
    75   24   72 1    
    76   25   73 1    
    77   26   74 1    
    78   27   75 1    
    79   28   76 1    
    80   33   77 1    
    81   33   78 1    
    82   35   79 1    
    83   36   80 1    
    84   37   81 1    
    85   38   82 1    
    86   39   83 1    
    87   40   84 1    
    88   41   85 1    
    89   41   86 1    
    90   41   87 1    
    91   42   88 1    
    92   42   89 1    
    93   42   90 1    
    94   43   91 1    
    95   44   92 1    
    96   44   93 1    
    97   44   94 1    
    98   45   95 1    
    99   45   96 1    
   100   45   97 1    
   101   46   98 1    
   102   47   99 1    
   103   49  100 1    
   104   50  101 1    
   105   51  102 1    
   106   52  103 1    
   107   53  104 1    
@<TRIPOS>SUBSTRUCTURE
     1 PHENYL      1 PERM              0 ****  ****    6 ROOT 
     2 PHENYL     23 PERM              0 ****  ****    1  
     3 PHENYL     34 PERM              0 ****  ****    1  
     4 ISOPROPYL    40 PERM              0 ****  ****    1  
     5 ISOPROPYL    43 PERM              0 ****  ****    1  
     6 OH         46 PERM              0 ****  ****    1  
     7 PHENYL     48 PERM              0 ****  ****    1  
@<TRIPOS>NORMAL
@<TRIPOS>FF_PBC
FORCE_FIELD_SETUP_FEATURE Force Field Setup information
v1.0  0 0.000000 0.000000 0.000000 0.000000 0.000000 0.000000 NONE 0 0 0 0 1 0 0 0 0 0 0 0 0
