#	Name:			Sc32
#	Creating user name:	nsalim
#	Creation time:		Mon Jun 20 15:56:40 2005

#	Modifying user name:	nsalim
#	Modification time:	Mon Jun 20 16:22:11 2005

@<TRIPOS>MOLECULE
Sc32
  108   112     8     1     0
SMALL
GASTEIGER


@<TRIPOS>ATOM
      1 C1          8.365142   17.185885   15.364922 C.ar      1 PHENYL     -0.021282 
      2 C           7.792803   17.594716   16.575471 C.ar      1 PHENYL     -0.056372 
      3 C           7.755076   16.727429   17.671258 C.ar      1 PHENYL     -0.061429 
      4 C           8.284491   15.438907   17.561152 C.ar      1 PHENYL     -0.061740 
      5 C           8.843111   15.018800   16.351044 C.ar      1 PHENYL     -0.061429 
      6 C           8.877084   15.887302   15.255897 C.ar      1 PHENYL     -0.056372 
      7 C7          8.424064   18.161306   14.181066 C.3       1 PHENYL      0.083653 
      8 O8          9.450164   17.767764   13.246646 O.3       1 PHENYL     -0.295134 
      9 C9          9.571816   18.587433   12.193126 C.2       1 PHENYL      0.353376 
     10 N10        10.533464   18.192244   11.335071 N.am      1 PHENYL     -0.276038 
     11 C11        10.830747   19.007457   10.159059 C.3       1 PHENYL      0.126709 
     12 C12        11.701568   18.255311    9.174476 C.2       1 PHENYL      0.238257 
     13 N13        11.142239   17.233081    8.484169 N.am      1 PHENYL     -0.307802 
     14 C14        11.937092   16.451640    7.530577 C.3       1 PHENYL      0.054969 
     15 C15        11.004647   15.953680    6.384153 C.3       1 PHENYL      0.097537 
     16 C16        11.752232   15.181074    5.255278 C.3       1 PHENYL      0.112915 
     17 C17        10.988219   15.311587    3.954562 C.2       1 PHENYL      0.233264 
     18 N18        11.217223   16.370459    3.144384 N.am      1 PHENYL     -0.302393 
     19 C19        10.530739   16.449397    1.852761 C.3       1 PHENYL      0.101694 
     20 C20        11.080288   15.385672    0.924810 C.2       1 PHENYL      0.233871 
     21 N21        10.363312   15.034015   -0.167916 N.am      1 PHENYL     -0.309666 
     22 C22        10.869203   14.009877   -1.078467 C.3       1 PHENYL      0.036886 
     23 C          10.264980   14.208828   -2.475425 C.ar      2 PHENYL     -0.030323 
     24 C           9.510118   13.206932   -3.096640 C.ar      2 PHENYL     -0.057077 
     25 C           8.971468   13.418721   -4.369401 C.ar      2 PHENYL     -0.061452 
     26 C           9.184763   14.633222   -5.027527 C.ar      2 PHENYL     -0.061740 
     27 C           9.937464   15.636371   -4.410743 C.ar      2 PHENYL     -0.061452 
     28 C          10.474852   15.423109   -3.138068 C.ar      2 PHENYL     -0.057077 
     29 O29         8.884089   19.583681   12.034312 O.2       1 PHENYL     -0.241329 
     30 O30        12.870998   18.575834    9.033506 O.2       1 PHENYL     -0.273392 
     31 O31        10.172206   14.448368    3.673619 O.2       1 PHENYL     -0.273988 
     32 O32        12.159229   14.875197    1.182412 O.2       1 PHENYL     -0.273762 
     33 C33        12.625494   15.332976    8.365290 C.3       1 PHENYL     -0.006715 
     34 C          13.776331   14.560620    7.694635 C.ar      3 PHENYL     -0.045529 
     35 C          13.823080   13.163481    7.784727 C.ar      3 PHENYL     -0.058512 
     36 C          14.879854   12.444709    7.218336 C.ar      3 PHENYL     -0.061501 
     37 C          15.873474   13.112246    6.499137 C.ar      3 PHENYL     -0.061742 
     38 C          15.832450   14.504738    6.396276 C.ar      3 PHENYL     -0.061501 
     39 C          14.807408   15.224518    7.017491 C.ar      3 PHENYL     -0.058512 
     40 C          11.517711   20.299253   10.629646 C.ar      4 PHENYL     -0.018343 
     41 C          11.040573   21.558292   10.245270 C.ar      4 PHENYL     -0.056337 
     42 C          11.676343   22.720893   10.691072 C.ar      4 PHENYL     -0.061431 
     43 C1         10.595897   17.853443    1.173619 C.3       5 ISOPROPYL   -0.019730 
     44 C2         12.030420   18.229704    0.704975 C.3       5 ISOPROPYL   -0.060525 
     45 C3         10.011069   18.954913    2.101862 C.3       5 ISOPROPYL   -0.060525 
     46 O1         10.370633   17.152230    5.883554 O.3       6 OH         -0.387906 
     47 N47        11.916224   13.741547    5.585100 N.3       1 PHENYL     -0.299550 
     48 C          12.795864   22.632264   11.522846 C.ar      4 PHENYL     -0.061740 
     49 C49        12.804184   13.010174    4.646148 C.3       8 <8>         0.021997 
     50 C          13.134097   11.555032    5.020006 C.ar      7 PHENYL     -0.033558 
     51 C          14.193623   10.925365    4.354826 C.ar      7 PHENYL     -0.057350 
     52 C          14.558750    9.613368    4.668988 C.ar      7 PHENYL     -0.061461 
     53 C          13.853883    8.909022    5.647844 C.ar      7 PHENYL     -0.061741 
     54 C          12.785906    9.522662    6.307131 C.ar      7 PHENYL     -0.061461 
     55 C          12.429149   10.838325    5.995994 C.ar      7 PHENYL     -0.057350 
     56 C          13.277953   21.378378   11.907841 C.ar      4 PHENYL     -0.061431 
     57 C          12.639874   20.217411   11.461761 C.ar      4 PHENYL     -0.056337 
     58 H1          7.372930   18.591217   16.670307 H         1 PHENYL      0.062101 
     59 H2          7.314562   17.054528   18.608292 H         1 PHENYL      0.061767 
     60 H3          8.261444   14.766079   18.413093 H         1 PHENYL      0.061758 
     61 H4          9.251082   14.016469   16.261800 H         1 PHENYL      0.061767 
     62 H5          9.304293   15.542759   14.319841 H         1 PHENYL      0.062101 
     63 H6          8.637650   19.171394   14.568944 H         1 PHENYL      0.061655 
     64 H7          7.432791   18.157959   13.699269 H         1 PHENYL      0.061655 
     65 H8         11.074545   17.368808   11.517375 H         1 PHENYL      0.152047 
     66 H9          9.893533   19.250513    9.632939 H         1 PHENYL      0.064610 
     67 H10        10.187002   16.974774    8.639834 H         1 PHENYL      0.149137 
     68 H11        12.677408   17.117537    7.061842 H         1 PHENYL      0.052747 
     69 H12        10.229328   15.297986    6.816114 H         1 PHENYL      0.063235 
     70 H13        12.739855   15.645672    5.115200 H         1 PHENYL      0.058313 
     71 H14        11.888928   17.066796    3.392695 H         1 PHENYL      0.149509 
     72 H15         9.463996   16.222346    2.019233 H         1 PHENYL      0.059702 
     73 H16         9.462437   15.430841   -0.353922 H         1 PHENYL      0.149075 
     74 H17        10.627515   13.016007   -0.670359 H         1 PHENYL      0.051152 
     75 H18        11.963353   14.076869   -1.192425 H         1 PHENYL      0.051152 
     76 H19         9.336980   12.259741   -2.595990 H         2 PHENYL      0.062079 
     77 H20         8.386416   12.638905   -4.847685 H         2 PHENYL      0.061767 
     78 H21         8.766594   14.797052   -6.016094 H         2 PHENYL      0.061758 
     79 H22        10.104613   16.580745   -4.919820 H         2 PHENYL      0.061767 
     80 H23        11.058016   16.205207   -2.661411 H         2 PHENYL      0.062079 
     81 H24        11.839603   14.648379    8.719200 H         1 PHENYL      0.033193 
     82 H25        13.082686   15.796335    9.253557 H         1 PHENYL      0.033193 
     83 H26        13.039692   12.621665    8.303671 H         3 PHENYL      0.062030 
     84 H27        14.928665   11.366091    7.334074 H         3 PHENYL      0.061766 
     85 H28        16.672472   12.551313    6.024149 H         3 PHENYL      0.061758 
     86 H29        16.601205   15.028276    5.836156 H         3 PHENYL      0.061766 
     87 H30        14.834612   16.306776    6.973198 H         3 PHENYL      0.062030 
     88 H31        10.173204   21.644192    9.598719 H         4 PHENYL      0.062100 
     89 H32        11.300146   23.694353   10.391067 H         4 PHENYL      0.061767 
     90 H33         9.963425   17.822488    0.267931 H         5 ISOPROPYL    0.031802 
     91 H34        12.725689   18.308910    1.552680 H         5 ISOPROPYL    0.023302 
     92 H35        12.012914   19.201294    0.186769 H         5 ISOPROPYL    0.023302 
     93 H36        12.422191   17.478992    0.001364 H         5 ISOPROPYL    0.023302 
     94 H37         9.973308   19.919210    1.571203 H         5 ISOPROPYL    0.023302 
     95 H38        10.624713   19.085264    3.005205 H         5 ISOPROPYL    0.023302 
     96 H39         8.987365   18.692383    2.411028 H         5 ISOPROPYL    0.023302 
     97 H40         9.646126   17.001218    5.283919 H         6 OH          0.209942 
     98 H41        10.938220   13.275732    5.596180 H         1 PHENYL      0.123028 
     99 H42        13.289958   23.535152   11.868749 H         4 PHENYL      0.061758 
    100 H43        13.764761   13.545656    4.592498 H         8 <8>         0.047363 
    101 H44        12.371074   12.989111    3.632715 H         8 <8>         0.047363 
    102 H45        14.743592   11.457960    3.585185 H         7 PHENYL      0.062070 
    103 H46        15.389262    9.141603    4.152467 H         7 PHENYL      0.061767 
    104 H47        14.134554    7.889556    5.894616 H         7 PHENYL      0.061758 
    105 H48        12.232424    8.975327    7.064176 H         7 PHENYL      0.061767 
    106 H49        11.600841   11.286039    6.530181 H         7 PHENYL      0.062070 
    107 H50        14.148346   21.306112   12.553007 H         4 PHENYL      0.061767 
    108 H51        13.021778   19.247473   11.764002 H         4 PHENYL      0.062100 
@<TRIPOS>BOND
     1    1    2 ar   
     2    1    6 ar   
     3    6    5 ar   
     4    5    4 ar   
     5    4    3 ar   
     6    3    2 ar   
     7    1    7 1    
     8    7    8 1    
     9    8    9 1    
    10    9   10 am   
    11   10   11 1    
    12   11   12 1    
    13   12   13 am   
    14   13   14 1    
    15   14   15 1    
    16   15   16 1    
    17   16   17 1    
    18   17   18 am   
    19   18   19 1    
    20   19   20 1    
    21   20   21 am   
    22   21   22 1    
    23   23   24 ar   
    24   23   28 ar   
    25   28   27 ar   
    26   27   26 ar   
    27   26   25 ar   
    28   25   24 ar   
    29   22   23 1    
    30    9   29 2    
    31   12   30 2    
    32   17   31 2    
    33   20   32 2    
    34   14   33 1    
    35   34   35 ar   
    36   34   39 ar   
    37   39   38 ar   
    38   38   37 ar   
    39   37   36 ar   
    40   36   35 ar   
    41   33   34 1    
    42   40   41 ar   
    43   40   57 ar   
    44   57   56 ar   
    45   43   44 1    
    46   43   45 1    
    47   19   43 1    
    48   16   47 1    
    49   15   46 1    
    50   49   47 1    
    51   56   48 ar   
    52   50   51 ar   
    53   50   55 ar   
    54   55   54 ar   
    55   54   53 ar   
    56   53   52 ar   
    57   52   51 ar   
    58   49   50 1    
    59   48   42 ar   
    60   42   41 ar   
    61   11   40 1    
    62    2   58 1    
    63    3   59 1    
    64    4   60 1    
    65    5   61 1    
    66    6   62 1    
    67    7   63 1    
    68    7   64 1    
    69   10   65 1    
    70   11   66 1    
    71   13   67 1    
    72   14   68 1    
    73   15   69 1    
    74   16   70 1    
    75   18   71 1    
    76   19   72 1    
    77   21   73 1    
    78   22   74 1    
    79   22   75 1    
    80   24   76 1    
    81   25   77 1    
    82   26   78 1    
    83   27   79 1    
    84   28   80 1    
    85   33   81 1    
    86   33   82 1    
    87   35   83 1    
    88   36   84 1    
    89   37   85 1    
    90   38   86 1    
    91   39   87 1    
    92   41   88 1    
    93   42   89 1    
    94   43   90 1    
    95   44   91 1    
    96   44   92 1    
    97   44   93 1    
    98   45   94 1    
    99   45   95 1    
   100   45   96 1    
   101   46   97 1    
   102   47   98 1    
   103   48   99 1    
   104   49  100 1    
   105   49  101 1    
   106   51  102 1    
   107   52  103 1    
   108   53  104 1    
   109   54  105 1    
   110   55  106 1    
   111   56  107 1    
   112   57  108 1    
@<TRIPOS>SUBSTRUCTURE
     1 PHENYL      1 PERM              0 ****  ****    6  
     2 PHENYL     23 PERM              0 ****  ****    1  
     3 PHENYL     34 PERM              0 ****  ****    1  
     4 PHENYL     40 PERM              0 ****  ****    1  
     5 ISOPROPYL    43 PERM              0 ****  ****    1  
     6 OH         46 PERM              0 ****  ****    1  
     7 PHENYL     50 PERM              0 ****  ****    1  
     8 ****       49 PERM              0 ****  ****    2 ROOT 
@<TRIPOS>NORMAL
@<TRIPOS>FF_PBC
FORCE_FIELD_SETUP_FEATURE Force Field Setup information
v1.0  0 0.000000 0.000000 0.000000 0.000000 0.000000 0.000000 NONE 0 0 0 0 1 0 0 0 0 0 0 0 0
