#	Name:			Sc35
#	Creating user name:	nsalim
#	Creation time:		Wed Feb  9 14:25:01 2005

#	Modifying user name:	nsalim
#	Modification time:	Wed Feb  9 14:25:13 2005

@<TRIPOS>MOLECULE
Sc35
  107   110     8     1     0
SMALL
GASTEIGER


@<TRIPOS>ATOM
      1 C1          7.517247   14.523869   14.804125 C.ar      1 PHENYL     -0.021282 
      2 C           6.969541   14.611587   16.089836 C.ar      1 PHENYL     -0.056372 
      3 C           7.167941   13.581659   17.014329 C.ar      1 PHENYL     -0.061429 
      4 C           7.912938   12.454326   16.657594 C.ar      1 PHENYL     -0.061740 
      5 C           8.456891   12.358427   15.373863 C.ar      1 PHENYL     -0.061429 
      6 C           8.256618   13.389258   14.451000 C.ar      1 PHENYL     -0.056372 
      7 C7          7.318283   15.649579   13.780826 C.3       1 PHENYL      0.083653 
      8 O8          8.556732   15.860288   13.072029 O.3       1 PHENYL     -0.295140 
      9 C9          8.490562   16.811985   12.130452 C.2       1 PHENYL      0.353131 
     10 N10         9.664259   16.991619   11.489373 N.am      1 PHENYL     -0.280045 
     11 C11         9.791745   18.018849   10.454685 C.3       1 PHENYL      0.101947 
     12 C12        10.875410   17.616736    9.474261 C.2       1 PHENYL      0.233745 
     13 N13        10.616158   16.596673    8.623064 N.am      1 PHENYL     -0.308086 
     14 C14        11.628490   16.151557    7.660730 C.3       1 PHENYL      0.054958 
     15 C15        10.905708   15.593488    6.395280 C.3       1 PHENYL      0.097537 
     16 C16        11.852845   15.188821    5.227090 C.3       1 PHENYL      0.112915 
     17 C17        11.105010   15.339671    3.918486 C.2       1 PHENYL      0.233264 
     18 N18        11.208156   16.486423    3.206274 N.am      1 PHENYL     -0.302393 
     19 C19        10.544340   16.587525    1.904411 C.3       1 PHENYL      0.101694 
     20 C20        11.310329   15.765835    0.888657 C.2       1 PHENYL      0.233871 
     21 N21        10.707279   15.435681   -0.277111 N.am      1 PHENYL     -0.309666 
     22 C22        11.422839   14.649108   -1.278951 C.3       1 PHENYL      0.036886 
     23 C          10.879592   14.972893   -2.677329 C.ar      2 PHENYL     -0.030323 
     24 C          10.368321   13.973840   -3.513926 C.ar      2 PHENYL     -0.057077 
     25 C           9.877260   14.300794   -4.781538 C.ar      2 PHENYL     -0.061452 
     26 C           9.895396   15.628105   -5.219254 C.ar      2 PHENYL     -0.061740 
     27 C          10.405782   16.628586   -4.387467 C.ar      2 PHENYL     -0.061452 
     28 C          10.896275   16.299923   -3.120450 C.ar      2 PHENYL     -0.057077 
     29 O29         7.474348   17.443959   11.888095 O.2       1 PHENYL     -0.241337 
     30 O30        11.944095   18.206083    9.477985 O.2       1 PHENYL     -0.273770 
     31 O31        10.425792   14.399840    3.536725 O.2       1 PHENYL     -0.273988 
     32 O32        12.455400   15.427979    1.145040 O.2       1 PHENYL     -0.273762 
     33 C33        12.535291   15.130908    8.406189 C.3       1 PHENYL     -0.006715 
     34 C          13.851210   14.742592    7.707123 C.ar      3 PHENYL     -0.045529 
     35 C          14.210763   13.394012    7.588822 C.ar      3 PHENYL     -0.058512 
     36 C          15.414198   13.025296    6.980268 C.ar      3 PHENYL     -0.061501 
     37 C          16.247207   14.001259    6.428996 C.ar      3 PHENYL     -0.061742 
     38 C          15.897795   15.349113    6.540839 C.ar      3 PHENYL     -0.061501 
     39 C          14.724519   15.716683    7.206361 C.ar      3 PHENYL     -0.058512 
     40 C1         10.072864   19.377453   11.155320 C.3       4 ISOPROPYL   -0.016915 
     41 C41        10.294577   21.896012   10.865053 C.2       4 ISOPROPYL    0.259660 
     42 C42        10.051255   20.576167   10.165730 C.3       4 ISOPROPYL    0.035134 
     43 C1         10.354832   18.051792    1.396827 C.3       5 ISOPROPYL   -0.019730 
     44 C2         11.696231   18.738807    1.011003 C.3       5 ISOPROPYL   -0.060525 
     45 C3          9.576730   18.906772    2.436030 C.3       5 ISOPROPYL   -0.060525 
     46 O1          9.938737   16.573133    5.963847 O.3       6 OH         -0.387906 
     47 N47        12.327174   13.786816    5.357809 N.3       1 PHENYL     -0.299550 
     48 O48        10.302355   23.021575   10.142055 O.3       4 ISOPROPYL   -0.331267 
     49 C49        13.374842   13.415970    4.374242 C.3       8 <8>         0.021997 
     50 C          14.009331   12.027245    4.560920 C.ar      7 PHENYL     -0.033558 
     51 C          15.175207   11.731075    3.843903 C.ar      7 PHENYL     -0.057350 
     52 C          15.812205   10.495661    3.990272 C.ar      7 PHENYL     -0.061461 
     53 C          15.279234    9.534193    4.852079 C.ar      7 PHENYL     -0.061741 
     54 C          14.109033    9.814442    5.561888 C.ar      7 PHENYL     -0.061461 
     55 C          13.478149   11.053782    5.417258 C.ar      7 PHENYL     -0.057350 
     56 O56        10.481496   21.954612   12.068604 O.2       4 ISOPROPYL   -0.265176 
     57 H1          6.385470   15.479338   16.379437 H         1 PHENYL      0.062101 
     58 H2          6.742887   13.657049   18.010751 H         1 PHENYL      0.061767 
     59 H3          8.068540   11.654989   17.375858 H         1 PHENYL      0.061758 
     60 H4          9.035035   11.483107   15.093496 H         1 PHENYL      0.061767 
     61 H5          8.678754   13.304839   13.454508 H         1 PHENYL      0.062101 
     62 H6          7.013206   16.577866   14.291579 H         1 PHENYL      0.061655 
     63 H7          6.515924   15.332971   13.094656 H         1 PHENYL      0.061655 
     64 H8         10.471232   16.457162   11.750383 H         1 PHENYL      0.151724 
     65 H9          8.855031   18.105779    9.878554 H         1 PHENYL      0.059525 
     66 H10         9.741390   16.109092    8.661610 H         1 PHENYL      0.149127 
     67 H11        12.211616   17.025503    7.333374 H         1 PHENYL      0.052746 
     68 H12        10.309627   14.710960    6.676059 H         1 PHENYL      0.063235 
     69 H13        12.713977   15.873546    5.223611 H         1 PHENYL      0.058313 
     70 H14        11.791464   17.234756    3.516173 H         1 PHENYL      0.149509 
     71 H15         9.536141   16.147935    1.993440 H         1 PHENYL      0.059702 
     72 H16         9.754380   15.683331   -0.462592 H         1 PHENYL      0.149075 
     73 H17        11.314562   13.579895   -1.038724 H         1 PHENYL      0.051152 
     74 H18        12.497993   14.890616   -1.294914 H         1 PHENYL      0.051152 
     75 H19        10.348984   12.939613   -3.185688 H         2 PHENYL      0.062079 
     76 H20         9.481115   13.522840   -5.427263 H         2 PHENYL      0.061767 
     77 H21         9.513816   15.881520   -6.203705 H         2 PHENYL      0.061758 
     78 H22        10.421297   17.660396   -4.725252 H         2 PHENYL      0.061767 
     79 H23        11.291983   17.079840   -2.476988 H         2 PHENYL      0.062079 
     80 H24        11.925909   14.242909    8.633629 H         1 PHENYL      0.033193 
     81 H25        12.841773   15.574602    9.366319 H         1 PHENYL      0.033193 
     82 H26        13.559189   12.618108    7.976069 H         3 PHENYL      0.062030 
     83 H27        15.702930   11.979671    6.932779 H         3 PHENYL      0.061766 
     84 H28        17.160674   13.712981    5.918014 H         3 PHENYL      0.061758 
     85 H29        16.541758   16.111790    6.113602 H         3 PHENYL      0.061766 
     86 H30        14.510664   16.771117    7.335862 H         3 PHENYL      0.062030 
     87 H31         9.295873   19.545624   11.919349 H         4 ISOPROPYL    0.029258 
     88 H32        11.046913   19.326159   11.668616 H         4 ISOPROPYL    0.029258 
     89 H33         9.068066   20.623446    9.671389 H         4 ISOPROPYL    0.036672 
     90 H34        10.825222   20.450220    9.393905 H         4 ISOPROPYL    0.036672 
     91 H35         9.741115   18.016161    0.478563 H         5 ISOPROPYL    0.031802 
     92 H36        12.223516   18.163258    0.234657 H         5 ISOPROPYL    0.023302 
     93 H37        12.362592   18.844382    1.878678 H         5 ISOPROPYL    0.023302 
     94 H38        11.500122   19.745226    0.609148 H         5 ISOPROPYL    0.023302 
     95 H39         9.361173   19.905166    2.024170 H         5 ISOPROPYL    0.023302 
     96 H40        10.157746   19.035744    3.360805 H         5 ISOPROPYL    0.023302 
     97 H41         8.619467   18.425470    2.690160 H         5 ISOPROPYL    0.023302 
     98 H42        10.325390   17.407408    5.718897 H         6 OH          0.209942 
     99 H43        11.478636   13.121608    5.248328 H         1 PHENYL      0.123028 
    100 H44        10.150506   22.896767    9.212722 H         4 ISOPROPYL    0.220208 
    101 H45        14.194036   14.148209    4.445797 H         8 <8>         0.047363 
    102 H46        12.974811   13.452812    3.347486 H         8 <8>         0.047363 
    103 H47        15.595099   12.466610    3.164791 H         7 PHENYL      0.062070 
    104 H48        16.720351   10.282862    3.434450 H         7 PHENYL      0.061767 
    105 H49        15.771762    8.573692    4.969205 H         7 PHENYL      0.061758 
    106 H50        13.689602    9.066940    6.228533 H         7 PHENYL      0.061767 
    107 H51        12.575752   11.240180    5.985425 H         7 PHENYL      0.062070 
@<TRIPOS>BOND
     1    1    2 ar   
     2    1    6 ar   
     3    6    5 ar   
     4    5    4 ar   
     5    4    3 ar   
     6    3    2 ar   
     7    1    7 1    
     8    7    8 1    
     9    8    9 1    
    10    9   10 am   
    11   10   11 1    
    12   11   12 1    
    13   12   13 am   
    14   13   14 1    
    15   14   15 1    
    16   15   16 1    
    17   16   17 1    
    18   17   18 am   
    19   18   19 1    
    20   19   20 1    
    21   20   21 am   
    22   21   22 1    
    23   23   24 ar   
    24   23   28 ar   
    25   28   27 ar   
    26   27   26 ar   
    27   26   25 ar   
    28   25   24 ar   
    29   22   23 1    
    30    9   29 2    
    31   12   30 2    
    32   17   31 2    
    33   20   32 2    
    34   14   33 1    
    35   34   35 ar   
    36   34   39 ar   
    37   39   38 ar   
    38   38   37 ar   
    39   37   36 ar   
    40   36   35 ar   
    41   33   34 1    
    42   42   41 1    
    43   42   40 1    
    44   11   40 1    
    45   43   44 1    
    46   43   45 1    
    47   19   43 1    
    48   16   47 1    
    49   15   46 1    
    50   49   47 1    
    51   41   48 1    
    52   50   51 ar   
    53   50   55 ar   
    54   55   54 ar   
    55   54   53 ar   
    56   53   52 ar   
    57   52   51 ar   
    58   49   50 1    
    59   41   56 2    
    60    2   57 1    
    61    3   58 1    
    62    4   59 1    
    63    5   60 1    
    64    6   61 1    
    65    7   62 1    
    66    7   63 1    
    67   10   64 1    
    68   11   65 1    
    69   13   66 1    
    70   14   67 1    
    71   15   68 1    
    72   16   69 1    
    73   18   70 1    
    74   19   71 1    
    75   21   72 1    
    76   22   73 1    
    77   22   74 1    
    78   24   75 1    
    79   25   76 1    
    80   26   77 1    
    81   27   78 1    
    82   28   79 1    
    83   33   80 1    
    84   33   81 1    
    85   35   82 1    
    86   36   83 1    
    87   37   84 1    
    88   38   85 1    
    89   39   86 1    
    90   40   87 1    
    91   40   88 1    
    92   42   89 1    
    93   42   90 1    
    94   43   91 1    
    95   44   92 1    
    96   44   93 1    
    97   44   94 1    
    98   45   95 1    
    99   45   96 1    
   100   45   97 1    
   101   46   98 1    
   102   47   99 1    
   103   48  100 1    
   104   49  101 1    
   105   49  102 1    
   106   51  103 1    
   107   52  104 1    
   108   53  105 1    
   109   54  106 1    
   110   55  107 1    
@<TRIPOS>SUBSTRUCTURE
     1 PHENYL      1 PERM              0 ****  ****    6  
     2 PHENYL     23 PERM              0 ****  ****    1  
     3 PHENYL     34 PERM              0 ****  ****    1  
     4 ISOPROPYL    40 PERM              0 ****  ****    1  
     5 ISOPROPYL    43 PERM              0 ****  ****    1  
     6 OH         46 PERM              0 ****  ****    1  
     7 PHENYL     50 PERM              0 ****  ****    1  
     8 ****       49 PERM              0 ****  ****    2 ROOT 
@<TRIPOS>NORMAL
@<TRIPOS>FF_PBC
FORCE_FIELD_SETUP_FEATURE Force Field Setup information
v1.0  0 0.000000 0.000000 0.000000 0.000000 0.000000 0.000000 NONE 0 0 0 0 1 0 0 0 0 0 0 0 0
