#	Name:			Sc36
#	Creating user name:	nsalim
#	Creation time:		Wed Feb  9 14:25:41 2005

#	Modifying user name:	nsalim
#	Modification time:	Wed Feb  9 14:25:50 2005

@<TRIPOS>MOLECULE
Sc36
  108   112     8     1     0
SMALL
GASTEIGER


@<TRIPOS>ATOM
      1 C1          7.422969   14.523474   14.755834 C.ar      1 PHENYL     -0.021282 
      2 C           6.897229   14.613819   16.050476 C.ar      1 PHENYL     -0.056372 
      3 C           7.071228   13.565146   16.958640 C.ar      1 PHENYL     -0.061429 
      4 C           7.768866   12.416137   16.576295 C.ar      1 PHENYL     -0.061740 
      5 C           8.289199   12.317052   15.283076 C.ar      1 PHENYL     -0.061429 
      6 C           8.113522   13.366752   14.376650 C.ar      1 PHENYL     -0.056372 
      7 C7          7.253522   15.670262   13.750862 C.3       1 PHENYL      0.083653 
      8 O8          8.493976   15.848501   13.036911 O.3       1 PHENYL     -0.295140 
      9 C9          8.457368   16.820789   12.115146 C.2       1 PHENYL      0.353140 
     10 N10         9.631776   16.966801   11.467327 N.am      1 PHENYL     -0.279694 
     11 C11         9.792343   18.011374   10.454684 C.3       1 PHENYL      0.106633 
     12 C12        10.876032   17.613356    9.474174 C.2       1 PHENYL      0.234098 
     13 N13        10.621556   16.587258    8.629507 N.am      1 PHENYL     -0.308077 
     14 C14        11.632274   16.147648    7.663211 C.3       1 PHENYL      0.054959 
     15 C15        10.906448   15.604274    6.393276 C.3       1 PHENYL      0.097537 
     16 C16        11.852135   15.192685    5.226623 C.3       1 PHENYL      0.112915 
     17 C17        11.103680   15.340048    3.917996 C.2       1 PHENYL      0.233264 
     18 N18        11.209038   16.483457    3.200770 N.am      1 PHENYL     -0.302393 
     19 C19        10.544783   16.581220    1.898850 C.3       1 PHENYL      0.101694 
     20 C20        11.315199   15.763975    0.882786 C.2       1 PHENYL      0.233871 
     21 N21        10.716099   15.435216   -0.285432 N.am      1 PHENYL     -0.309666 
     22 C22        11.436940   14.653437   -1.287259 C.3       1 PHENYL      0.036886 
     23 C          10.889591   14.969447   -2.685860 C.ar      2 PHENYL     -0.030323 
     24 C          10.385745   13.964169   -3.519539 C.ar      2 PHENYL     -0.057077 
     25 C           9.890860   14.283890   -4.787493 C.ar      2 PHENYL     -0.061452 
     26 C           9.897638   15.610231   -5.228522 C.ar      2 PHENYL     -0.061740 
     27 C          10.400492   16.616932   -4.399679 C.ar      2 PHENYL     -0.061452 
     28 C          10.894899   16.295442   -3.132312 C.ar      2 PHENYL     -0.057077 
     29 O29         7.465271   17.497408   11.894752 O.2       1 PHENYL     -0.241337 
     30 O30        11.936185   18.217861    9.469269 O.2       1 PHENYL     -0.273758 
     31 O31        10.421868   14.400182    3.540964 O.2       1 PHENYL     -0.273988 
     32 O32        12.460345   15.427941    1.141208 O.2       1 PHENYL     -0.273762 
     33 C33        12.533628   15.117759    8.402300 C.3       1 PHENYL     -0.006715 
     34 C          13.850641   14.727773    7.706030 C.ar      3 PHENYL     -0.045529 
     35 C          14.209744   13.378549    7.593748 C.ar      3 PHENYL     -0.058512 
     36 C          15.413752   13.006515    6.988261 C.ar      3 PHENYL     -0.061501 
     37 C          16.247641   13.979641    6.433450 C.ar      3 PHENYL     -0.061742 
     38 C          15.898812   15.328129    6.539286 C.ar      3 PHENYL     -0.061501 
     39 C          14.725239   15.699224    7.202312 C.ar      3 PHENYL     -0.058512 
     40 C1         10.115087   19.345856   11.177297 C.3       4 ISOPROPYL    0.014008 
     41 N41        10.523139   21.739211   10.722761 N.pl3     4 ISOPROPYL   -0.307528 
     42 C42        10.242742   20.540424   10.263014 C.2       4 ISOPROPYL    0.029282 
     43 C1         10.347907   18.045089    1.392825 C.3       5 ISOPROPYL   -0.019730 
     44 C2         11.685282   18.738283    1.004030 C.3       5 ISOPROPYL   -0.060525 
     45 C3          9.569067   18.895778    2.435010 C.3       5 ISOPROPYL   -0.060525 
     46 O1          9.953677   16.598158    5.962739 O.3       6 OH         -0.387906 
     47 N47        12.322317   13.789853    5.363361 N.3       1 PHENYL     -0.299550 
     48 C48        10.574658   22.584083    9.742457 C.2       4 ISOPROPYL    0.085290 
     49 C49        13.368204   13.410957    4.380964 C.3       8 <8>         0.021997 
     50 C          14.001034   12.022425    4.575603 C.ar      7 PHENYL     -0.033558 
     51 C          15.173764   11.725115    3.870278 C.ar      7 PHENYL     -0.057350 
     52 C          15.810216   10.490487    4.025760 C.ar      7 PHENYL     -0.061461 
     53 C          15.269458    9.530569    4.884372 C.ar      7 PHENYL     -0.061741 
     54 C          14.091967    9.811479    5.581724 C.ar      7 PHENYL     -0.061461 
     55 C          13.461850   11.050099    5.428275 C.ar      7 PHENYL     -0.057350 
     56 N56        10.338556   21.981215    8.668459 N.2       4 ISOPROPYL   -0.246517 
     57 C57        10.100699   20.585339    8.921704 C.2       4 ISOPROPYL    0.046088 
     58 H1          6.349444   15.498224   16.359820 H         1 PHENYL      0.062101 
     59 H2          6.664086   13.642864   17.962308 H         1 PHENYL      0.061767 
     60 H3          7.906032   11.602460   17.282052 H         1 PHENYL      0.061758 
     61 H4          8.829944   11.424684   14.982638 H         1 PHENYL      0.061767 
     62 H5          8.516752   13.279902   13.372597 H         1 PHENYL      0.062101 
     63 H6          6.983270   16.600405   14.277587 H         1 PHENYL      0.061655 
     64 H7          6.436649   15.391853   13.065270 H         1 PHENYL      0.061655 
     65 H8         10.418151   16.393706   11.708470 H         1 PHENYL      0.151736 
     66 H9          8.861119   18.138823    9.877304 H         1 PHENYL      0.059885 
     67 H10         9.750685   16.093118    8.675321 H         1 PHENYL      0.149127 
     68 H11        12.219780   17.021351    7.343045 H         1 PHENYL      0.052746 
     69 H12        10.298551   14.727868    6.667807 H         1 PHENYL      0.063235 
     70 H13        12.714807   15.875516    5.220792 H         1 PHENYL      0.058313 
     71 H14        11.794890   17.231444    3.506725 H         1 PHENYL      0.149509 
     72 H15         9.538656   16.136544    1.986853 H         1 PHENYL      0.059702 
     73 H16         9.763056   15.680777   -0.472770 H         1 PHENYL      0.149075 
     74 H17        11.338733   13.583719   -1.045009 H         1 PHENYL      0.051152 
     75 H18        12.509811   14.904811   -1.304680 H         1 PHENYL      0.051152 
     76 H19        10.375226   12.930640   -3.188767 H         2 PHENYL      0.062079 
     77 H20         9.500597   13.501099   -5.430960 H         2 PHENYL      0.061767 
     78 H21         9.513042   15.858048   -6.213244 H         2 PHENYL      0.061758 
     79 H22        10.407158   17.648000   -4.740030 H         2 PHENYL      0.061767 
     80 H23        11.284820   17.080208   -2.491231 H         2 PHENYL      0.062079 
     81 H24        11.919703   14.230792    8.621328 H         1 PHENYL      0.033193 
     82 H25        12.838701   15.554205    9.366219 H         1 PHENYL      0.033193 
     83 H26        13.557473   12.604398    7.983369 H         3 PHENYL      0.062030 
     84 H27        15.701955   11.960544    6.945901 H         3 PHENYL      0.061766 
     85 H28        17.161385   13.688688    5.924427 H         3 PHENYL      0.061758 
     86 H29        16.543523   16.088672    6.109306 H         3 PHENYL      0.061766 
     87 H30        14.512748   16.754410    7.327383 H         3 PHENYL      0.062030 
     88 H31         9.311343   19.566605   11.896694 H         4 ISOPROPYL    0.034884 
     89 H32        11.054492   19.231358   11.740214 H         4 ISOPROPYL    0.034884 
     90 H33        10.679447   21.974426   11.714593 H         4 ISOPROPYL    0.152752 
     91 H34         9.731861   18.007540    0.476243 H         5 ISOPROPYL    0.031802 
     92 H35        12.212917   18.165813    0.225659 H         5 ISOPROPYL    0.023302 
     93 H36        12.353605   18.845873    1.869946 H         5 ISOPROPYL    0.023302 
     94 H37        11.483991   19.744320    0.603752 H         5 ISOPROPYL    0.023302 
     95 H38         9.347600   19.893593    2.024811 H         5 ISOPROPYL    0.023302 
     96 H39        10.152305   19.026692    3.358152 H         5 ISOPROPYL    0.023302 
     97 H40         8.614839   18.409837    2.691725 H         5 ISOPROPYL    0.023302 
     98 H41        10.352094   17.427782    5.720730 H         6 OH          0.209942 
     99 H42        11.471643   13.126892    5.257661 H         1 PHENYL      0.123028 
    100 H43        10.787166   23.651221    9.817663 H         4 ISOPROPYL    0.100024 
    101 H44        14.188348   14.142645    4.447385 H         8 <8>         0.047363 
    102 H45        12.967286   13.442211    3.354382 H         8 <8>         0.047363 
    103 H46        15.599708   12.459079    3.193247 H         7 PHENYL      0.062070 
    104 H47        16.723989   10.277188    3.479497 H         7 PHENYL      0.061767 
    105 H48        15.761563    8.570771    5.008676 H         7 PHENYL      0.061758 
    106 H49        13.666267    9.065037    6.245586 H         7 PHENYL      0.061767 
    107 H50        12.553593   11.236710    5.986892 H         7 PHENYL      0.062070 
    108 H51         9.870105   19.807822    8.195526 H         4 ISOPROPYL    0.084546 
@<TRIPOS>BOND
     1    1    2 ar   
     2    1    6 ar   
     3    6    5 ar   
     4    5    4 ar   
     5    4    3 ar   
     6    3    2 ar   
     7    1    7 1    
     8    7    8 1    
     9    8    9 1    
    10    9   10 am   
    11   10   11 1    
    12   11   12 1    
    13   12   13 am   
    14   13   14 1    
    15   14   15 1    
    16   15   16 1    
    17   16   17 1    
    18   17   18 am   
    19   18   19 1    
    20   19   20 1    
    21   20   21 am   
    22   21   22 1    
    23   23   24 ar   
    24   23   28 ar   
    25   28   27 ar   
    26   27   26 ar   
    27   26   25 ar   
    28   25   24 ar   
    29   22   23 1    
    30    9   29 2    
    31   12   30 2    
    32   17   31 2    
    33   20   32 2    
    34   14   33 1    
    35   34   35 ar   
    36   34   39 ar   
    37   39   38 ar   
    38   38   37 ar   
    39   37   36 ar   
    40   36   35 ar   
    41   33   34 1    
    42   42   41 1    
    43   42   40 1    
    44   11   40 1    
    45   43   44 1    
    46   43   45 1    
    47   19   43 1    
    48   16   47 1    
    49   15   46 1    
    50   49   47 1    
    51   41   48 1    
    52   50   51 ar   
    53   50   55 ar   
    54   55   54 ar   
    55   54   53 ar   
    56   53   52 ar   
    57   52   51 ar   
    58   49   50 1    
    59   48   56 2    
    60   56   57 1    
    61   42   57 2    
    62    2   58 1    
    63    3   59 1    
    64    4   60 1    
    65    5   61 1    
    66    6   62 1    
    67    7   63 1    
    68    7   64 1    
    69   10   65 1    
    70   11   66 1    
    71   13   67 1    
    72   14   68 1    
    73   15   69 1    
    74   16   70 1    
    75   18   71 1    
    76   19   72 1    
    77   21   73 1    
    78   22   74 1    
    79   22   75 1    
    80   24   76 1    
    81   25   77 1    
    82   26   78 1    
    83   27   79 1    
    84   28   80 1    
    85   33   81 1    
    86   33   82 1    
    87   35   83 1    
    88   36   84 1    
    89   37   85 1    
    90   38   86 1    
    91   39   87 1    
    92   40   88 1    
    93   40   89 1    
    94   41   90 1    
    95   43   91 1    
    96   44   92 1    
    97   44   93 1    
    98   44   94 1    
    99   45   95 1    
   100   45   96 1    
   101   45   97 1    
   102   46   98 1    
   103   47   99 1    
   104   48  100 1    
   105   49  101 1    
   106   49  102 1    
   107   51  103 1    
   108   52  104 1    
   109   53  105 1    
   110   54  106 1    
   111   55  107 1    
   112   57  108 1    
@<TRIPOS>SUBSTRUCTURE
     1 PHENYL      1 PERM              0 ****  ****    6  
     2 PHENYL     23 PERM              0 ****  ****    1  
     3 PHENYL     34 PERM              0 ****  ****    1  
     4 ISOPROPYL    40 PERM              0 ****  ****    1  
     5 ISOPROPYL    43 PERM              0 ****  ****    1  
     6 OH         46 PERM              0 ****  ****    1  
     7 PHENYL     50 PERM              0 ****  ****    1  
     8 ****       49 PERM              0 ****  ****    2 ROOT 
@<TRIPOS>NORMAL
@<TRIPOS>FF_PBC
FORCE_FIELD_SETUP_FEATURE Force Field Setup information
v1.0  0 0.000000 0.000000 0.000000 0.000000 0.000000 0.000000 NONE 0 0 0 0 1 0 0 0 0 0 0 0 0
