#	Name:			Sc4
#	Creating user name:	nsalim
#	Creation time:		Wed Feb  9 14:48:27 2005

#	Modifying user name:	nsalim
#	Modification time:	Wed Feb  9 14:48:40 2005

@<TRIPOS>MOLECULE
Sc4
  110   113     7     1     0
SMALL
GASTEIGER


@<TRIPOS>ATOM
      1 C1          7.972039   14.376368   15.103560 C.ar      1 PHENYL     -0.021282 
      2 C           7.311186   14.435910   16.336635 C.ar      1 PHENYL     -0.056372 
      3 C           7.635255   13.536972   17.357441 C.ar      1 PHENYL     -0.061429 
      4 C           8.620342   12.567449   17.150049 C.ar      1 PHENYL     -0.061740 
      5 C           9.275675   12.495695   15.917729 C.ar      1 PHENYL     -0.061429 
      6 C           8.947707   13.393627   14.897436 C.ar      1 PHENYL     -0.056372 
      7 C7          7.633032   15.374472   13.987604 C.3       1 PHENYL      0.083653 
      8 O8          8.817805   15.644774   13.211260 O.3       1 PHENYL     -0.295140 
      9 C9          8.623337   16.488089   12.187907 C.2       1 PHENYL      0.353139 
     10 N10         9.752955   16.695121   11.479268 N.am      1 PHENYL     -0.279805 
     11 C11         9.768412   17.592224   10.321013 C.3       1 PHENYL      0.103775 
     12 C12        10.700343   17.036222    9.264416 C.2       1 PHENYL      0.233986 
     13 N13        10.660806   17.538504    8.005458 N.am      1 PHENYL     -0.308078 
     14 C14        11.563297   17.040640    6.959131 C.3       1 PHENYL      0.054958 
     15 C15        11.275701   15.528694    6.692986 C.3       1 PHENYL      0.097529 
     16 C16        11.846629   14.954082    5.363878 C.3       1 PHENYL      0.112683 
     17 C17        11.027170   15.338571    4.150551 C.2       1 PHENYL      0.233256 
     18 N18        11.347094   16.441354    3.432872 N.am      1 PHENYL     -0.302393 
     19 C19        10.657218   16.730851    2.170453 C.3       1 PHENYL      0.101694 
     20 C20        11.402614   16.043798    1.045918 C.2       1 PHENYL      0.233871 
     21 N21        10.801367   15.887361   -0.156562 N.am      1 PHENYL     -0.309666 
     22 C22        11.515677   15.216621   -1.240192 C.3       1 PHENYL      0.036886 
     23 C          10.872895   15.530971   -2.598403 C.ar      2 PHENYL     -0.030323 
     24 C          10.400009   14.513597   -3.435720 C.ar      2 PHENYL     -0.057077 
     25 C           9.828844   14.827311   -4.672729 C.ar      2 PHENYL     -0.061452 
     26 C           9.723085   16.160916   -5.077494 C.ar      2 PHENYL     -0.061740 
     27 C          10.188135   17.180429   -4.242150 C.ar      2 PHENYL     -0.061452 
     28 C          10.760736   16.864513   -3.006582 C.ar      2 PHENYL     -0.057077 
     29 O29         7.543499   17.000928   11.940048 O.2       1 PHENYL     -0.241337 
     30 O30        11.465953   16.149590    9.605619 O.2       1 PHENYL     -0.273760 
     31 O31        10.091652   14.616306    3.846901 O.2       1 PHENYL     -0.273988 
     32 O32        12.539245   15.647446    1.250874 O.2       1 PHENYL     -0.273762 
     33 C33        13.026743   17.378439    7.382578 C.3       1 PHENYL     -0.006715 
     34 C          14.040383   17.342333    6.228872 C.ar      3 PHENYL     -0.045529 
     35 C          15.006186   16.330607    6.149148 C.ar      3 PHENYL     -0.058512 
     36 C          15.892872   16.282401    5.069449 C.ar      3 PHENYL     -0.061501 
     37 C          15.841253   17.265412    4.077767 C.ar      3 PHENYL     -0.061742 
     38 C          14.908729   18.301365    4.174266 C.ar      3 PHENYL     -0.061501 
     39 C          14.008683   18.335775    5.243467 C.ar      3 PHENYL     -0.058512 
     40 C1         10.218445   19.026461   10.732789 C.3       4 ISOPROPYL   -0.019657 
     41 C2         11.664535   19.036070   11.302611 C.3       4 ISOPROPYL   -0.060524 
     42 C3          9.238750   19.649730   11.764496 C.3       4 ISOPROPYL   -0.060524 
     43 C1         10.490420   18.255862    1.883869 C.3       5 ISOPROPYL   -0.019730 
     44 C2         11.833086   18.973622    1.569749 C.3       5 ISOPROPYL   -0.060525 
     45 C3          9.765426   18.955498    3.066063 C.3       5 ISOPROPYL   -0.060525 
     46 O1          9.861577   15.261971    6.780610 O.3       6 OH         -0.387906 
     47 N47        11.939044   13.480565    5.492544 N.3       1 PHENYL     -0.303254 
     48 C48        12.756798   12.781676    4.475113 C.3       1 PHENYL      0.000627 
     49 C49        13.014905   11.329339    4.943332 C.3       1 PHENYL     -0.015081 
     50 C          14.011002   10.646477    3.995880 C.ar      7 PHENYL     -0.046160 
     51 C          15.386706   10.821627    4.185021 C.ar      7 PHENYL     -0.058532 
     52 C          16.302059   10.197338    3.332873 C.ar      7 PHENYL     -0.061501 
     53 C          15.844754    9.394369    2.284442 C.ar      7 PHENYL     -0.061742 
     54 C          14.471884    9.220970    2.087950 C.ar      7 PHENYL     -0.061501 
     55 C          13.557775    9.848642    2.939331 C.ar      7 PHENYL     -0.058532 
     56 H1          6.540582   15.181040   16.508636 H         1 PHENYL      0.062101 
     57 H2          7.121174   13.591397   18.312501 H         1 PHENYL      0.061767 
     58 H3          8.875665   11.871614   17.943856 H         1 PHENYL      0.061758 
     59 H4         10.039765   11.741775   15.752643 H         1 PHENYL      0.061767 
     60 H5          9.456695   13.321817   13.941188 H         1 PHENYL      0.062101 
     61 H6          7.251996   16.311047   14.427752 H         1 PHENYL      0.061655 
     62 H7          6.846946   14.917013   13.365041 H         1 PHENYL      0.061655 
     63 H8         10.606490   16.236338   11.738099 H         1 PHENYL      0.151734 
     64 H9          8.768346   17.637987    9.857076 H         1 PHENYL      0.059775 
     65 H10        10.006937   18.259493    7.766571 H         1 PHENYL      0.149127 
     66 H11        11.339679   17.579901    6.024089 H         1 PHENYL      0.052746 
     67 H12        11.735772   14.945879    7.505448 H         1 PHENYL      0.063235 
     68 H13        12.867189   15.317334    5.220566 H         1 PHENYL      0.058306 
     69 H14        12.133313   17.003355    3.681302 H         1 PHENYL      0.149509 
     70 H15         9.639128   16.307749    2.192658 H         1 PHENYL      0.059702 
     71 H16         9.858354   16.186181   -0.315276 H         1 PHENYL      0.149075 
     72 H17        11.526926   14.133211   -1.043818 H         1 PHENYL      0.051152 
     73 H18        12.559744   15.564850   -1.294294 H         1 PHENYL      0.051152 
     74 H19        10.473159   13.474033   -3.132588 H         2 PHENYL      0.062079 
     75 H20         9.466673   14.034273   -5.320296 H         2 PHENYL      0.061767 
     76 H21         9.280964   16.404258   -6.038986 H         2 PHENYL      0.061758 
     77 H22        10.104524   18.217532   -4.553206 H         2 PHENYL      0.061767 
     78 H23        11.120631   17.659692   -2.360879 H         2 PHENYL      0.062079 
     79 H24        13.363720   16.716822    8.193075 H         1 PHENYL      0.033193 
     80 H25        13.040624   18.405239    7.781087 H         1 PHENYL      0.033193 
     81 H26        15.070466   15.569941    6.920722 H         3 PHENYL      0.062030 
     82 H27        16.622174   15.480492    5.000222 H         3 PHENYL      0.061766 
     83 H28        16.525123   17.225265    3.234955 H         3 PHENYL      0.061758 
     84 H29        14.886041   19.079886    3.418002 H         3 PHENYL      0.061766 
     85 H30        13.283927   19.141478    5.305339 H         3 PHENYL      0.062030 
     86 H31        10.205386   19.667926    9.833811 H         4 ISOPROPYL    0.031803 
     87 H32        12.377161   18.635397   10.566325 H         4 ISOPROPYL    0.023302 
     88 H33        11.726747   18.431644   12.219641 H         4 ISOPROPYL    0.023302 
     89 H34        11.968127   20.065687   11.546445 H         4 ISOPROPYL    0.023302 
     90 H35         9.519485   20.693931   11.975120 H         4 ISOPROPYL    0.023302 
     91 H36         9.259707   19.090573   12.712559 H         4 ISOPROPYL    0.023302 
     92 H37         8.210573   19.641318   11.369194 H         4 ISOPROPYL    0.023302 
     93 H38         9.854186   18.369987    0.986894 H         5 ISOPROPYL    0.031802 
     94 H39        12.349157   18.490181    0.726506 H         5 ISOPROPYL    0.023302 
     95 H40        12.502336   18.972299    2.440122 H         5 ISOPROPYL    0.023302 
     96 H41        11.639940   20.021864    1.293263 H         5 ISOPROPYL    0.023302 
     97 H42         9.577359   20.013968    2.827004 H         5 ISOPROPYL    0.023302 
     98 H43        10.376839   18.908923    3.979323 H         5 ISOPROPYL    0.023302 
     99 H44         8.798125   18.468499    3.265748 H         5 ISOPROPYL    0.023302 
    100 H45         9.347706   15.734552    6.133823 H         6 OH          0.209942 
    101 H46        10.944737   13.050389    5.551617 H         1 PHENYL      0.122724 
    102 H47        13.733159   13.282855    4.369815 H         1 PHENYL      0.042736 
    103 H48        12.258874   12.783336    3.490483 H         1 PHENYL      0.042736 
    104 H49        12.065256   10.772277    4.978645 H         1 PHENYL      0.032548 
    105 H50        13.431092   11.345705    5.963562 H         1 PHENYL      0.032548 
    106 H51        15.750207   11.445722    4.995477 H         7 PHENYL      0.062029 
    107 H52        17.368041   10.336232    3.485795 H         7 PHENYL      0.061766 
    108 H53        16.554807    8.906155    1.624180 H         7 PHENYL      0.061758 
    109 H54        14.115054    8.598232    1.273483 H         7 PHENYL      0.061766 
    110 H55        12.493310    9.714149    2.774787 H         7 PHENYL      0.062029 
@<TRIPOS>BOND
     1    1    2 ar   
     2    1    6 ar   
     3    6    5 ar   
     4    5    4 ar   
     5    4    3 ar   
     6    3    2 ar   
     7    1    7 1    
     8    7    8 1    
     9    8    9 1    
    10    9   10 am   
    11   10   11 1    
    12   11   12 1    
    13   12   13 am   
    14   13   14 1    
    15   14   15 1    
    16   15   16 1    
    17   16   17 1    
    18   17   18 am   
    19   18   19 1    
    20   19   20 1    
    21   20   21 am   
    22   21   22 1    
    23   23   24 ar   
    24   23   28 ar   
    25   28   27 ar   
    26   27   26 ar   
    27   26   25 ar   
    28   25   24 ar   
    29   22   23 1    
    30    9   29 2    
    31   12   30 2    
    32   17   31 2    
    33   20   32 2    
    34   14   33 1    
    35   34   35 ar   
    36   34   39 ar   
    37   39   38 ar   
    38   38   37 ar   
    39   37   36 ar   
    40   36   35 ar   
    41   33   34 1    
    42   40   41 1    
    43   40   42 1    
    44   11   40 1    
    45   43   44 1    
    46   43   45 1    
    47   19   43 1    
    48   16   47 1    
    49   15   46 1    
    50   47   48 1    
    51   48   49 1    
    52   50   51 ar   
    53   50   55 ar   
    54   55   54 ar   
    55   54   53 ar   
    56   53   52 ar   
    57   52   51 ar   
    58   49   50 1    
    59    2   56 1    
    60    3   57 1    
    61    4   58 1    
    62    5   59 1    
    63    6   60 1    
    64    7   61 1    
    65    7   62 1    
    66   10   63 1    
    67   11   64 1    
    68   13   65 1    
    69   14   66 1    
    70   15   67 1    
    71   16   68 1    
    72   18   69 1    
    73   19   70 1    
    74   21   71 1    
    75   22   72 1    
    76   22   73 1    
    77   24   74 1    
    78   25   75 1    
    79   26   76 1    
    80   27   77 1    
    81   28   78 1    
    82   33   79 1    
    83   33   80 1    
    84   35   81 1    
    85   36   82 1    
    86   37   83 1    
    87   38   84 1    
    88   39   85 1    
    89   40   86 1    
    90   41   87 1    
    91   41   88 1    
    92   41   89 1    
    93   42   90 1    
    94   42   91 1    
    95   42   92 1    
    96   43   93 1    
    97   44   94 1    
    98   44   95 1    
    99   44   96 1    
   100   45   97 1    
   101   45   98 1    
   102   45   99 1    
   103   46  100 1    
   104   47  101 1    
   105   48  102 1    
   106   48  103 1    
   107   49  104 1    
   108   49  105 1    
   109   51  106 1    
   110   52  107 1    
   111   53  108 1    
   112   54  109 1    
   113   55  110 1    
@<TRIPOS>SUBSTRUCTURE
     1 PHENYL      1 PERM              0 ****  ****    6 ROOT 
     2 PHENYL     23 PERM              0 ****  ****    1  
     3 PHENYL     34 PERM              0 ****  ****    1  
     4 ISOPROPYL    40 PERM              0 ****  ****    1  
     5 ISOPROPYL    43 PERM              0 ****  ****    1  
     6 OH         46 PERM              0 ****  ****    1  
     7 PHENYL     50 PERM              0 ****  ****    1  
@<TRIPOS>NORMAL
@<TRIPOS>FF_PBC
FORCE_FIELD_SETUP_FEATURE Force Field Setup information
v1.0  0 0.000000 0.000000 0.000000 0.000000 0.000000 0.000000 NONE 0 0 0 0 1 0 0 0 0 0 0 0 0
