#	Name:			Sc41
#	Creating user name:	nsalim
#	Creation time:		Wed Feb  9 14:52:52 2005

#	Modifying user name:	nsalim
#	Modification time:	Wed Feb  9 14:53:36 2005

@<TRIPOS>MOLECULE
Sc41
  105   108     8     1     0
SMALL
GASTEIGER


@<TRIPOS>ATOM
      1 C1          6.250292   15.682423   15.054334 C.ar      1 PHENYL     -0.021282 
      2 C           5.595316   16.151555   16.199652 C.ar      1 PHENYL     -0.056372 
      3 C           5.476715   15.337890   17.330464 C.ar      1 PHENYL     -0.061429 
      4 C           6.005753   14.044413   17.320843 C.ar      1 PHENYL     -0.061740 
      5 C           6.646677   13.564706   16.175373 C.ar      1 PHENYL     -0.061429 
      6 C           6.762779   14.379894   15.045489 C.ar      1 PHENYL     -0.056372 
      7 C7          6.412329   16.578816   13.818998 C.3       1 PHENYL      0.083653 
      8 O8          7.701608   16.326609   13.224569 O.3       1 PHENYL     -0.295140 
      9 C9          7.967696   17.081330   12.149086 C.2       1 PHENYL      0.353139 
     10 N10         9.193861   16.831465   11.643892 N.am      1 PHENYL     -0.279805 
     11 C11         9.721448   17.598959   10.512570 C.3       1 PHENYL      0.103775 
     12 C12        10.572909   16.699678    9.635997 C.2       1 PHENYL      0.233986 
     13 N13        11.075473   17.194556    8.476511 N.am      1 PHENYL     -0.308078 
     14 C14        11.932300   16.421466    7.562637 C.3       1 PHENYL      0.054959 
     15 C15        11.016892   15.948423    6.393478 C.3       1 PHENYL      0.097537 
     16 C16        11.767047   15.219719    5.240297 C.3       1 PHENYL      0.112915 
     17 C17        10.973827   15.358115    3.957414 C.2       1 PHENYL      0.233266 
     18 N18        11.292446   16.327697    3.068730 N.am      1 PHENYL     -0.302175 
     19 C19        10.627743   16.360207    1.764589 C.3       1 PHENYL      0.107596 
     20 C20        11.207655   15.277025    0.879202 C.2       1 PHENYL      0.234091 
     21 N21        10.569683   14.958952   -0.271557 N.am      1 PHENYL     -0.309663 
     22 C22        11.096186   13.912791   -1.146130 C.3       1 PHENYL      0.036886 
     23 C          10.822958   14.288907   -2.608282 C.ar      2 PHENYL     -0.030323 
     24 C          10.046143   13.475999   -3.441950 C.ar      2 PHENYL     -0.057077 
     25 C           9.814068   13.848268   -4.769531 C.ar      2 PHENYL     -0.061452 
     26 C          10.355721   15.035880   -5.269477 C.ar      2 PHENYL     -0.061740 
     27 C          11.131744   15.850539   -4.440328 C.ar      2 PHENYL     -0.061452 
     28 C          11.365029   15.475213   -3.114224 C.ar      2 PHENYL     -0.057077 
     29 O29         7.185262   17.902943   11.698077 O.2       1 PHENYL     -0.241337 
     30 O30        10.764261   15.562570   10.032489 O.2       1 PHENYL     -0.273760 
     31 O31        10.067250   14.566723    3.752261 O.2       1 PHENYL     -0.273988 
     32 O32        12.237871   14.721278    1.225777 O.2       1 PHENYL     -0.273758 
     33 C33        12.777844   15.292087    8.230202 C.3       1 PHENYL     -0.006715 
     34 C          14.012369   14.772515    7.462506 C.ar      3 PHENYL     -0.045529 
     35 C          14.250012   13.393120    7.392007 C.ar      3 PHENYL     -0.058512 
     36 C          15.324622   12.881711    6.658889 C.ar      3 PHENYL     -0.061501 
     37 C          16.174084   13.749548    5.969766 C.ar      3 PHENYL     -0.061742 
     38 C          15.977238   15.128605    6.071167 C.ar      3 PHENYL     -0.061501 
     39 C          14.930812   15.634606    6.848288 C.ar      3 PHENYL     -0.058512 
     40 C1         10.547741   18.815104   11.036846 C.3       4 ISOPROPYL   -0.019657 
     41 C2         11.797608   18.358641   11.840139 C.3       4 ISOPROPYL   -0.060524 
     42 C3          9.677726   19.768123   11.902549 C.3       4 ISOPROPYL   -0.060524 
     43 C1         10.791703   17.741865    1.075884 C.3       5 ISOPROPYL    0.050635 
     44 C2         12.252824   18.047777    0.850192 C.2       5 ISOPROPYL    0.212729 
     45 O45        13.004288   17.985275    1.809915 O.2       5 ISOPROPYL   -0.275954 
     46 O1         10.298204   17.090916    5.881381 O.3       6 OH         -0.387906 
     47 N47        11.984870   13.778281    5.526435 N.3       1 PHENYL     -0.299550 
     48 N48        12.704546   18.382730   -0.376602 N.am      5 ISOPROPYL   -0.329260 
     49 C49        12.816668   13.092238    4.505469 C.3       8 <8>         0.021997 
     50 C          13.235263   11.651680    4.841283 C.ar      7 PHENYL     -0.033558 
     51 C          14.215712   11.044604    4.046772 C.ar      7 PHENYL     -0.057350 
     52 C          14.657298    9.747437    4.321772 C.ar      7 PHENYL     -0.061461 
     53 C          14.111622    9.038119    5.394457 C.ar      7 PHENYL     -0.061741 
     54 C          13.121990    9.629568    6.183543 C.ar      7 PHENYL     -0.061461 
     55 C          12.683646   10.927899    5.906034 C.ar      7 PHENYL     -0.057350 
     56 H1          5.173721   17.151539   16.218749 H         1 PHENYL      0.062101 
     57 H2          4.973290   15.710712   18.217491 H         1 PHENYL      0.061767 
     58 H3          5.918706   13.413864   18.200596 H         1 PHENYL      0.061758 
     59 H4          7.054702   12.558488   16.163376 H         1 PHENYL      0.061767 
     60 H5          7.254910   13.994893   14.157845 H         1 PHENYL      0.062101 
     61 H6          6.334776   17.637906   14.116250 H         1 PHENYL      0.061655 
     62 H7          5.598216   16.337421   13.116629 H         1 PHENYL      0.061655 
     63 H8          9.777653   16.127061   12.053679 H         1 PHENYL      0.151734 
     64 H9          8.899007   17.958978    9.872096 H         1 PHENYL      0.059775 
     65 H10        10.814711   18.114850    8.176817 H         1 PHENYL      0.149127 
     66 H11        12.639553   17.149164    7.138935 H         1 PHENYL      0.052746 
     67 H12        10.246931   15.275919    6.803313 H         1 PHENYL      0.063235 
     68 H13        12.739961   15.715095    5.104818 H         1 PHENYL      0.058313 
     69 H14        12.046917   16.967468    3.232756 H         1 PHENYL      0.149512 
     70 H15         9.548571   16.169433    1.892889 H         1 PHENYL      0.059919 
     71 H16         9.705063   15.393521   -0.530900 H         1 PHENYL      0.149075 
     72 H17        10.627763   12.952652   -0.878925 H         1 PHENYL      0.051152 
     73 H18        12.187970   13.796597   -1.050880 H         1 PHENYL      0.051152 
     74 H19         9.618827   12.552360   -3.065040 H         2 PHENYL      0.062079 
     75 H20         9.212212   13.214164   -5.413568 H         2 PHENYL      0.061767 
     76 H21        10.174179   15.324923   -6.300266 H         2 PHENYL      0.061758 
     77 H22        11.553292   16.773816   -4.826131 H         2 PHENYL      0.061767 
     78 H23        11.970943   16.107770   -2.473362 H         2 PHENYL      0.062079 
     79 H24        12.107564   14.445058    8.437443 H         1 PHENYL      0.033193 
     80 H25        13.175033   15.671150    9.184587 H         1 PHENYL      0.033193 
     81 H26        13.601289   12.699348    7.915118 H         3 PHENYL      0.062030 
     82 H27        15.498684   11.810340    6.623135 H         3 PHENYL      0.061766 
     83 H28        16.982694   13.354291    5.362706 H         3 PHENYL      0.061758 
     84 H29        16.642755   15.808489    5.547863 H         3 PHENYL      0.061766 
     85 H30        14.856946   16.708263    6.971015 H         3 PHENYL      0.062030 
     86 H31        10.903068   19.404088   10.173980 H         4 ISOPROPYL    0.031803 
     87 H32        12.385355   19.234241   12.157377 H         4 ISOPROPYL    0.023302 
     88 H33        12.447677   17.717038   11.225634 H         4 ISOPROPYL    0.023302 
     89 H34        11.501287   17.799589   12.740181 H         4 ISOPROPYL    0.023302 
     90 H35         8.782949   20.085284   11.344772 H         4 ISOPROPYL    0.023302 
     91 H36        10.250840   20.668971   12.172855 H         4 ISOPROPYL    0.023302 
     92 H37         9.359989   19.275225   12.833382 H         4 ISOPROPYL    0.023302 
     93 H38        10.227285   17.763968    0.131184 H         5 ISOPROPYL    0.038127 
     94 H39        10.380357   18.522014    1.735012 H         5 ISOPROPYL    0.038127 
     95 H40        10.860655   17.755549    5.496844 H         6 OH          0.209942 
     96 H41        11.022272   13.285872    5.599266 H         1 PHENYL      0.123028 
     97 H42        13.679627   18.575553   -0.492962 H         5 ISOPROPYL    0.144930 
     98 H43        12.099571   18.446678   -1.169711 H         5 ISOPROPYL    0.144930 
     99 H44        13.746678   13.665390    4.365506 H         8 <8>         0.047363 
    100 H45        12.293409   13.053353    3.535968 H         8 <8>         0.047363 
    101 H46        14.642388   11.583647    3.206566 H         7 PHENYL      0.062070 
    102 H47        15.423615    9.291109    3.702460 H         7 PHENYL      0.061767 
    103 H48        14.454579    8.031486    5.613254 H         7 PHENYL      0.061758 
    104 H49        12.692597    9.078557    7.014786 H         7 PHENYL      0.061767 
    105 H50        11.912907   11.358046    6.533562 H         7 PHENYL      0.062070 
@<TRIPOS>BOND
     1    1    2 ar   
     2    1    6 ar   
     3    6    5 ar   
     4    5    4 ar   
     5    4    3 ar   
     6    3    2 ar   
     7    1    7 1    
     8    7    8 1    
     9    8    9 1    
    10    9   10 am   
    11   10   11 1    
    12   11   12 1    
    13   12   13 am   
    14   13   14 1    
    15   14   15 1    
    16   15   16 1    
    17   16   17 1    
    18   17   18 am   
    19   18   19 1    
    20   19   20 1    
    21   20   21 am   
    22   21   22 1    
    23   23   24 ar   
    24   23   28 ar   
    25   28   27 ar   
    26   27   26 ar   
    27   26   25 ar   
    28   25   24 ar   
    29   22   23 1    
    30    9   29 2    
    31   12   30 2    
    32   17   31 2    
    33   20   32 2    
    34   14   33 1    
    35   34   35 ar   
    36   34   39 ar   
    37   39   38 ar   
    38   38   37 ar   
    39   37   36 ar   
    40   36   35 ar   
    41   33   34 1    
    42   40   41 1    
    43   40   42 1    
    44   11   40 1    
    45   43   44 1    
    46   44   45 2    
    47   19   43 1    
    48   16   47 1    
    49   15   46 1    
    50   49   47 1    
    51   44   48 am   
    52   50   51 ar   
    53   50   55 ar   
    54   55   54 ar   
    55   54   53 ar   
    56   53   52 ar   
    57   52   51 ar   
    58   49   50 1    
    59    2   56 1    
    60    3   57 1    
    61    4   58 1    
    62    5   59 1    
    63    6   60 1    
    64    7   61 1    
    65    7   62 1    
    66   10   63 1    
    67   11   64 1    
    68   13   65 1    
    69   14   66 1    
    70   15   67 1    
    71   16   68 1    
    72   18   69 1    
    73   19   70 1    
    74   21   71 1    
    75   22   72 1    
    76   22   73 1    
    77   24   74 1    
    78   25   75 1    
    79   26   76 1    
    80   27   77 1    
    81   28   78 1    
    82   33   79 1    
    83   33   80 1    
    84   35   81 1    
    85   36   82 1    
    86   37   83 1    
    87   38   84 1    
    88   39   85 1    
    89   40   86 1    
    90   41   87 1    
    91   41   88 1    
    92   41   89 1    
    93   42   90 1    
    94   42   91 1    
    95   42   92 1    
    96   43   93 1    
    97   43   94 1    
    98   46   95 1    
    99   47   96 1    
   100   48   97 1    
   101   48   98 1    
   102   49   99 1    
   103   49  100 1    
   104   51  101 1    
   105   52  102 1    
   106   53  103 1    
   107   54  104 1    
   108   55  105 1    
@<TRIPOS>SUBSTRUCTURE
     1 PHENYL      1 PERM              0 ****  ****    6  
     2 PHENYL     23 PERM              0 ****  ****    1  
     3 PHENYL     34 PERM              0 ****  ****    1  
     4 ISOPROPYL    40 PERM              0 ****  ****    1  
     5 ISOPROPYL    43 PERM              0 ****  ****    1  
     6 OH         46 PERM              0 ****  ****    1  
     7 PHENYL     50 PERM              0 ****  ****    1  
     8 ****       49 PERM              0 ****  ****    2 ROOT 
@<TRIPOS>NORMAL
@<TRIPOS>FF_PBC
FORCE_FIELD_SETUP_FEATURE Force Field Setup information
v1.0  0 0.000000 0.000000 0.000000 0.000000 0.000000 0.000000 NONE 0 0 0 0 1 0 0 0 0 0 0 0 0
