#	Name:			Sc42
#	Creating user name:	nsalim
#	Creation time:		Wed Feb  9 14:54:25 2005

#	Modifying user name:	nsalim
#	Modification time:	Wed Feb  9 14:54:40 2005

@<TRIPOS>MOLECULE
Sc42
  108   112     7     1     0
SMALL
GASTEIGER


@<TRIPOS>ATOM
      1 C1          6.687519   15.919311   15.446923 C.ar      1 PHENYL     -0.021282 
      2 C           5.966038   16.404205   16.544653 C.ar      1 PHENYL     -0.056372 
      3 C           5.969353   15.708591   17.757418 C.ar      1 PHENYL     -0.061429 
      4 C           6.689599   14.517170   17.878842 C.ar      1 PHENYL     -0.061740 
      5 C           7.399661   14.020082   16.782648 C.ar      1 PHENYL     -0.061429 
      6 C           7.392741   14.716402   15.570383 C.ar      1 PHENYL     -0.056372 
      7 C7          6.709517   16.694969   14.122622 C.3       1 PHENYL      0.083653 
      8 O8          7.990670   16.514710   13.485961 O.3       1 PHENYL     -0.295140 
      9 C9          8.123453   17.169264   12.323735 C.2       1 PHENYL      0.353139 
     10 N10         9.342776   16.987393   11.774903 N.am      1 PHENYL     -0.279805 
     11 C11         9.726818   17.664030   10.533165 C.3       1 PHENYL      0.103775 
     12 C12        10.624108   16.756580    9.712089 C.2       1 PHENYL      0.233986 
     13 N13        10.990610   17.153255    8.466068 N.am      1 PHENYL     -0.308078 
     14 C14        11.888789   16.391371    7.581391 C.3       1 PHENYL      0.054959 
     15 C15        11.001213   15.901747    6.395998 C.3       1 PHENYL      0.097537 
     16 C16        11.777604   15.216155    5.233355 C.3       1 PHENYL      0.112914 
     17 C17        10.988039   15.358631    3.948718 C.2       1 PHENYL      0.233214 
     18 N18        11.277952   16.357473    3.081589 N.am      1 PHENYL     -0.304046 
     19 C19        10.623808   16.379978    1.773449 C.3       1 PHENYL      0.084177 
     20 C20        11.244666   15.269995    0.953321 C.2       1 PHENYL      0.160624 
     21 C21        10.403345   14.600667   -0.105625 C.3       1 PHENYL      0.063722 
     22 C22        11.215366   13.821630   -1.107294 C.2       1 PHENYL      0.107254 
     23 N23        10.730770   13.370497   -2.190160 N.2       1 PHENYL     -0.234597 
     24 C24        11.677407   12.712400   -2.873672 C.ar      1 PHENYL      0.086723 
     25 C25        12.813254   12.808649   -2.085493 C.ar      1 PHENYL      0.057921 
     26 N26        12.478475   13.514638   -0.980477 N.pl3     1 PHENYL     -0.300855 
     27 C27        14.022931   12.236138   -2.473201 C.ar      1 PHENYL     -0.038435 
     28 C28        14.022971   11.557447   -3.701007 C.ar      1 PHENYL     -0.059877 
     29 O29         7.237777   17.853982   11.836283 O.2       1 PHENYL     -0.241337 
     30 O30        10.970409   15.709766   10.233000 O.2       1 PHENYL     -0.273760 
     31 O31        10.111356   14.539842    3.720988 O.2       1 PHENYL     -0.273988 
     32 O32        12.393742   14.914411    1.168612 O.2       1 PHENYL     -0.294979 
     33 C33        12.743123   15.275192    8.259001 C.3       1 PHENYL     -0.006715 
     34 C          13.954840   14.722721    7.479551 C.ar      2 PHENYL     -0.045529 
     35 C          14.168812   13.338868    7.423014 C.ar      2 PHENYL     -0.058512 
     36 C          15.254809   12.805813    6.722528 C.ar      2 PHENYL     -0.061501 
     37 C          16.119936   13.652139    6.026209 C.ar      2 PHENYL     -0.061742 
     38 C          15.928312   15.034340    6.089331 C.ar      2 PHENYL     -0.061501 
     39 C          14.877797   15.564687    6.844450 C.ar      2 PHENYL     -0.058512 
     40 C1         10.445966   19.010325   10.859962 C.3       3 ISOPROPYL   -0.019657 
     41 C2         11.777959   18.780033   11.627636 C.3       3 ISOPROPYL   -0.060524 
     42 C3          9.525804   19.969475   11.665180 C.3       3 ISOPROPYL   -0.060524 
     43 C1         10.702294   17.754621    1.038037 C.3       4 ISOPROPYL   -0.021342 
     44 C2         12.140117   18.111438    0.563211 C.3       4 ISOPROPYL   -0.060581 
     45 C3         10.118766   18.890243    1.924945 C.3       4 ISOPROPYL   -0.060581 
     46 O1         10.248882   17.028218    5.895540 O.3       5 OH         -0.387906 
     47 N47        12.032069   13.773775    5.482647 N.3       1 PHENYL     -0.299550 
     48 C48        12.865103   11.463027   -4.493963 C.ar      1 PHENYL     -0.059637 
     49 C49        12.876225   13.134928    4.440161 C.3       7 <7>         0.021997 
     50 C          13.342960   11.699850    4.735368 C.ar      6 PHENYL     -0.033558 
     51 C          14.390533   11.172422    3.969896 C.ar      6 PHENYL     -0.057350 
     52 C          14.880211    9.886623    4.215679 C.ar      6 PHENYL     -0.061461 
     53 C          14.312807    9.105998    5.225552 C.ar      6 PHENYL     -0.061741 
     54 C          13.254360    9.615682    5.981694 C.ar      6 PHENYL     -0.061461 
     55 C          12.771132   10.904416    5.736630 C.ar      6 PHENYL     -0.057350 
     56 C56        11.652998   12.044987   -4.095240 C.ar      1 PHENYL     -0.034441 
     57 H1          5.397382   17.325005   16.461988 H         1 PHENYL      0.062101 
     58 H2          5.412185   16.093792   18.606143 H         1 PHENYL      0.061767 
     59 H3          6.697178   13.979042   18.821920 H         1 PHENYL      0.061758 
     60 H4          7.957024   13.092562   16.872903 H         1 PHENYL      0.061767 
     61 H5          7.939887   14.315664   14.722939 H         1 PHENYL      0.062101 
     62 H6          6.536206   17.765746   14.320998 H         1 PHENYL      0.061655 
     63 H7          5.895032   16.304739   13.491170 H         1 PHENYL      0.061655 
     64 H8         10.018209   16.396960   12.222432 H         1 PHENYL      0.151734 
     65 H9          8.838317   17.861353    9.910155 H         1 PHENYL      0.059775 
     66 H10        10.606180   17.996653    8.084084 H         1 PHENYL      0.149127 
     67 H11        12.590047   17.135467    7.175582 H         1 PHENYL      0.052746 
     68 H12        10.250535   15.199372    6.791276 H         1 PHENYL      0.063235 
     69 H13        12.736705   15.741090    5.114250 H         1 PHENYL      0.058313 
     70 H14        12.006867   17.012568    3.271195 H         1 PHENYL      0.149445 
     71 H15         9.551982   16.154856    1.912032 H         1 PHENYL      0.057989 
     72 H16         9.812511   15.346407   -0.656324 H         1 PHENYL      0.041914 
     73 H17         9.715057   13.901251    0.390783 H         1 PHENYL      0.041914 
     74 H18        13.097058   13.760385   -0.191261 H         1 PHENYL      0.153326 
     75 H19        14.910342   12.315019   -1.854775 H         1 PHENYL      0.063671 
     76 H20        14.941769   11.093518   -4.046416 H         1 PHENYL      0.061817 
     77 H21        12.068299   14.446628    8.521707 H         1 PHENYL      0.033193 
     78 H22        13.184770   15.683259    9.181469 H         1 PHENYL      0.033193 
     79 H23        13.493374   12.658900    7.931189 H         2 PHENYL      0.062030 
     80 H24        15.425767   11.733360    6.717131 H         2 PHENYL      0.061766 
     81 H25        16.936282   13.237697    5.442567 H         2 PHENYL      0.061758 
     82 H26        16.601233   15.697440    5.553899 H         2 PHENYL      0.061766 
     83 H27        14.803025   16.641567    6.934347 H         2 PHENYL      0.062030 
     84 H28        10.691286   19.522626    9.913710 H         3 ISOPROPYL    0.031803 
     85 H29        12.460453   18.137695   11.049825 H         3 ISOPROPYL    0.023302 
     86 H30        11.589696   18.305670   12.602358 H         3 ISOPROPYL    0.023302 
     87 H31        12.284713   19.741621   11.805181 H         3 ISOPROPYL    0.023302 
     88 H32        10.014294   20.948148   11.794436 H         3 ISOPROPYL    0.023302 
     89 H33         9.310312   19.562001   12.664192 H         3 ISOPROPYL    0.023302 
     90 H34         8.574677   20.128458   11.133508 H         3 ISOPROPYL    0.023302 
     91 H35        10.074163   17.692145    0.131521 H         4 ISOPROPYL    0.031747 
     92 H36        12.532166   17.339705   -0.116882 H         4 ISOPROPYL    0.023301 
     93 H37        12.833439   18.214191    1.409805 H         4 ISOPROPYL    0.023301 
     94 H38        12.128791   19.067097    0.016008 H         4 ISOPROPYL    0.023301 
     95 H39        10.087587   19.836985    1.363183 H         4 ISOPROPYL    0.023301 
     96 H40        10.730775   19.045894    2.825455 H         4 ISOPROPYL    0.023301 
     97 H41         9.092841   18.643475    2.239833 H         4 ISOPROPYL    0.023301 
     98 H42        10.790048   17.713065    5.515620 H         5 OH          0.209942 
     99 H43        11.081819   13.257347    5.546521 H         1 PHENYL      0.123028 
    100 H44        12.908456   10.927276   -5.437431 H         1 PHENYL      0.061824 
    101 H45        13.786120   13.741911    4.310675 H         7 <7>         0.047363 
    102 H46        12.350719   13.102270    3.471644 H         7 <7>         0.047363 
    103 H47        14.833297   11.764756    3.175123 H         6 PHENYL      0.062070 
    104 H48        15.700663    9.494635    3.622324 H         6 PHENYL      0.061767 
    105 H49        14.692176    8.107660    5.421141 H         6 PHENYL      0.061758 
    106 H50        12.806589    9.007977    6.762352 H         6 PHENYL      0.061767 
    107 H51        11.949700   11.270376    6.339727 H         6 PHENYL      0.062070 
    108 H52        10.750110   11.983947   -4.692634 H         1 PHENYL      0.063930 
@<TRIPOS>BOND
     1    1    2 ar   
     2    1    6 ar   
     3    6    5 ar   
     4    5    4 ar   
     5    4    3 ar   
     6    3    2 ar   
     7    1    7 1    
     8    7    8 1    
     9    8    9 1    
    10    9   10 am   
    11   10   11 1    
    12   11   12 1    
    13   12   13 am   
    14   13   14 1    
    15   14   15 1    
    16   15   16 1    
    17   16   17 1    
    18   17   18 am   
    19   18   19 1    
    20   19   20 1    
    21   20   21 1    
    22   21   22 1    
    23   22   23 2    
    24   23   24 1    
    25   24   25 ar   
    26   25   26 1    
    27   22   26 1    
    28   25   27 ar   
    29   27   28 ar   
    30    9   29 2    
    31   12   30 2    
    32   17   31 2    
    33   20   32 2    
    34   14   33 1    
    35   34   35 ar   
    36   34   39 ar   
    37   39   38 ar   
    38   38   37 ar   
    39   37   36 ar   
    40   36   35 ar   
    41   33   34 1    
    42   40   41 1    
    43   40   42 1    
    44   11   40 1    
    45   43   44 1    
    46   43   45 1    
    47   19   43 1    
    48   16   47 1    
    49   15   46 1    
    50   49   47 1    
    51   28   48 ar   
    52   50   51 ar   
    53   50   55 ar   
    54   55   54 ar   
    55   54   53 ar   
    56   53   52 ar   
    57   52   51 ar   
    58   49   50 1    
    59   48   56 ar   
    60   24   56 ar   
    61    2   57 1    
    62    3   58 1    
    63    4   59 1    
    64    5   60 1    
    65    6   61 1    
    66    7   62 1    
    67    7   63 1    
    68   10   64 1    
    69   11   65 1    
    70   13   66 1    
    71   14   67 1    
    72   15   68 1    
    73   16   69 1    
    74   18   70 1    
    75   19   71 1    
    76   21   72 1    
    77   21   73 1    
    78   26   74 1    
    79   27   75 1    
    80   28   76 1    
    81   33   77 1    
    82   33   78 1    
    83   35   79 1    
    84   36   80 1    
    85   37   81 1    
    86   38   82 1    
    87   39   83 1    
    88   40   84 1    
    89   41   85 1    
    90   41   86 1    
    91   41   87 1    
    92   42   88 1    
    93   42   89 1    
    94   42   90 1    
    95   43   91 1    
    96   44   92 1    
    97   44   93 1    
    98   44   94 1    
    99   45   95 1    
   100   45   96 1    
   101   45   97 1    
   102   46   98 1    
   103   47   99 1    
   104   48  100 1    
   105   49  101 1    
   106   49  102 1    
   107   51  103 1    
   108   52  104 1    
   109   53  105 1    
   110   54  106 1    
   111   55  107 1    
   112   56  108 1    
@<TRIPOS>SUBSTRUCTURE
     1 PHENYL      1 PERM              0 ****  ****    5  
     2 PHENYL     34 PERM              0 ****  ****    1  
     3 ISOPROPYL    40 PERM              0 ****  ****    1  
     4 ISOPROPYL    43 PERM              0 ****  ****    1  
     5 OH         46 PERM              0 ****  ****    1  
     6 PHENYL     50 PERM              0 ****  ****    1  
     7 ****       49 PERM              0 ****  ****    2 ROOT 
@<TRIPOS>NORMAL
@<TRIPOS>FF_PBC
FORCE_FIELD_SETUP_FEATURE Force Field Setup information
v1.0  0 0.000000 0.000000 0.000000 0.000000 0.000000 0.000000 NONE 0 0 0 0 1 0 0 0 0 0 0 0 0
