#	Name:			Sc43
#	Creating user name:	nsalim
#	Creation time:		Wed Feb  9 14:55:13 2005

#	Modifying user name:	nsalim
#	Modification time:	Wed Feb  9 14:55:23 2005

@<TRIPOS>MOLECULE
Sc43
  112   116     7     1     0
SMALL
GASTEIGER


@<TRIPOS>ATOM
      1 C1          6.542082   15.890025   15.334030 C.ar      1 PHENYL     -0.021282 
      2 C           5.842758   16.387978   16.440225 C.ar      1 PHENYL     -0.056372 
      3 C           5.810566   15.669655   17.639221 C.ar      1 PHENYL     -0.061429 
      4 C           6.472370   14.442797   17.738009 C.ar      1 PHENYL     -0.061740 
      5 C           7.159886   13.933373   16.633083 C.ar      1 PHENYL     -0.061429 
      6 C           7.188963   14.652826   15.434702 C.ar      1 PHENYL     -0.056372 
      7 C7          6.605287   16.686242   14.023561 C.3       1 PHENYL      0.083653 
      8 O8          7.896762   16.490021   13.412894 O.3       1 PHENYL     -0.295140 
      9 C9          8.068613   17.160688   12.264937 C.2       1 PHENYL      0.353139 
     10 N10         9.296830   16.965706   11.740829 N.am      1 PHENYL     -0.279805 
     11 C11         9.721187   17.658000   10.521095 C.3       1 PHENYL      0.103775 
     12 C12        10.619181   16.751107    9.700552 C.2       1 PHENYL      0.233986 
     13 N13        11.012021   17.163671    8.468175 N.am      1 PHENYL     -0.308078 
     14 C14        11.901978   16.395105    7.581295 C.3       1 PHENYL      0.054959 
     15 C15        11.005859   15.904035    6.403172 C.3       1 PHENYL      0.097537 
     16 C16        11.775103   15.217690    5.236466 C.3       1 PHENYL      0.112914 
     17 C17        10.980927   15.364869    3.955318 C.2       1 PHENYL      0.233214 
     18 N18        11.273141   16.361461    3.086435 N.am      1 PHENYL     -0.304046 
     19 C19        10.620925   16.378826    1.777440 C.3       1 PHENYL      0.084177 
     20 C20        11.225266   15.247400    0.974216 C.2       1 PHENYL      0.160624 
     21 C21        10.372958   14.569814   -0.070090 C.3       1 PHENYL      0.063722 
     22 C22        11.184516   13.819442   -1.093633 C.2       1 PHENYL      0.107254 
     23 N23        10.713883   13.437677   -2.208855 N.2       1 PHENYL     -0.234597 
     24 C24        11.658079   12.787045   -2.902878 C.ar      1 PHENYL      0.086723 
     25 C25        12.776413   12.809435   -2.084444 C.ar      1 PHENYL      0.057921 
     26 N26        12.434481   13.468388   -0.952929 N.pl3     1 PHENYL     -0.300855 
     27 C27        13.978726   12.221863   -2.471870 C.ar      1 PHENYL     -0.038435 
     28 C28        13.990285   11.606682   -3.732620 C.ar      1 PHENYL     -0.059877 
     29 O29         7.207370   17.870239   11.769177 O.2       1 PHENYL     -0.241337 
     30 O30        10.942147   15.689995   10.207279 O.2       1 PHENYL     -0.273760 
     31 O31        10.099852   14.550261    3.730795 O.2       1 PHENYL     -0.273988 
     32 O32        12.369863   14.878828    1.192455 O.2       1 PHENYL     -0.294979 
     33 C33        12.756341   15.278784    8.258854 C.3       1 PHENYL     -0.006715 
     34 C          13.967354   14.729107    7.475842 C.ar      2 PHENYL     -0.045529 
     35 C          14.180338   13.345580    7.410376 C.ar      2 PHENYL     -0.058512 
     36 C          15.252756   12.814021    6.688396 C.ar      2 PHENYL     -0.061501 
     37 C          16.116012   13.664132    5.994228 C.ar      2 PHENYL     -0.061742 
     38 C          15.933044   15.046540    6.076069 C.ar      2 PHENYL     -0.061501 
     39 C          14.890226   15.573870    6.844247 C.ar      2 PHENYL     -0.058512 
     40 C1         10.455292   18.985500   10.888106 C.3       3 ISOPROPYL   -0.019657 
     41 C2         11.762776   18.718070   11.684823 C.3       3 ISOPROPYL   -0.060524 
     42 C3          9.532357   19.947773   11.686148 C.3       3 ISOPROPYL   -0.060524 
     43 C1         10.723043   17.740513    1.021270 C.3       4 ISOPROPYL   -0.021342 
     44 C2         12.169203   18.071280    0.552959 C.3       4 ISOPROPYL   -0.060581 
     45 C3         10.146985   18.897378    1.885005 C.3       4 ISOPROPYL   -0.060581 
     46 O1         10.249950   17.029771    5.906486 O.3       5 OH         -0.387906 
     47 N47        12.025250   13.773399    5.480537 N.3       1 PHENYL     -0.299550 
     48 C48        12.850469   11.586876   -4.556551 C.ar      1 PHENYL     -0.059637 
     49 C49        12.865130   13.139048    4.432418 C.3       7 <7>         0.021999 
     50 C          13.298853   11.688990    4.698952 C.ar      6 PHENYL     -0.033401 
     51 C          14.275167   11.127147    3.868618 C.ar      6 PHENYL     -0.054912 
     52 C          14.727627    9.823307    4.085241 C.ar      6 PHENYL     -0.031394 
     53 C          14.210814    9.052535    5.128925 C.ar      6 PHENYL      0.075831 
     54 C          13.219919    9.604150    5.950932 C.ar      6 PHENYL     -0.031394 
     55 C          12.767316   10.909873    5.733558 C.ar      6 PHENYL     -0.054912 
     56 C56        11.645433   12.183280   -4.157361 C.ar      1 PHENYL     -0.034441 
     57 O57        14.705826    7.753569    5.311721 O.3       6 PHENYL     -0.347912 
     58 C58        14.245883    6.902625    6.373821 C.3       6 PHENYL      0.043026 
     59 H1          5.319144   17.336380   16.375385 H         1 PHENYL      0.062101 
     60 H2          5.271220   16.064723   18.494849 H         1 PHENYL      0.061767 
     61 H3          6.452215   13.886657   18.670423 H         1 PHENYL      0.061758 
     62 H4          7.671748   12.978422   16.705684 H         1 PHENYL      0.061767 
     63 H5          7.718360   14.243855   14.579850 H         1 PHENYL      0.062101 
     64 H6          6.447567   17.757016   14.234251 H         1 PHENYL      0.061655 
     65 H7          5.797782   16.320892   13.368681 H         1 PHENYL      0.061655 
     66 H8          9.950872   16.355035   12.192897 H         1 PHENYL      0.151734 
     67 H9          8.850459   17.882884    9.882711 H         1 PHENYL      0.059775 
     68 H10        10.648544   18.020656    8.095936 H         1 PHENYL      0.149127 
     69 H11        12.603253   17.134910    7.167608 H         1 PHENYL      0.052746 
     70 H12        10.258043   15.202012    6.804454 H         1 PHENYL      0.063235 
     71 H13        12.736384   15.737766    5.113108 H         1 PHENYL      0.058313 
     72 H14        12.002168   17.016484    3.275179 H         1 PHENYL      0.149445 
     73 H15         9.545599   16.173400    1.919142 H         1 PHENYL      0.057989 
     74 H16         9.750999   15.305439   -0.600006 H         1 PHENYL      0.041914 
     75 H17         9.714153   13.849803    0.436709 H         1 PHENYL      0.041914 
     76 H18        13.040660   13.656705   -0.138654 H         1 PHENYL      0.153326 
     77 H19        14.851863   12.243241   -1.828850 H         1 PHENYL      0.063671 
     78 H20        14.904221   11.133926   -4.079465 H         1 PHENYL      0.061817 
     79 H21        12.084063   14.446892    8.517162 H         1 PHENYL      0.033193 
     80 H22        13.192355   15.685364    9.184678 H         1 PHENYL      0.033193 
     81 H23        13.514293   12.664595    7.928990 H         2 PHENYL      0.062030 
     82 H24        15.415417   11.740517    6.664682 H         2 PHENYL      0.061766 
     83 H25        16.924465   13.252419    5.397730 H         2 PHENYL      0.061758 
     84 H26        16.606473   15.712340    5.544681 H         2 PHENYL      0.061766 
     85 H27        14.821214   16.649994    6.947019 H         2 PHENYL      0.062030 
     86 H28        10.733681   19.509326    9.957476 H         3 ISOPROPYL    0.031803 
     87 H29        12.447152   18.072013   11.113471 H         3 ISOPROPYL    0.023302 
     88 H30        11.541683   18.232191   12.646941 H         3 ISOPROPYL    0.023302 
     89 H31        12.282261   19.667268   11.889930 H         3 ISOPROPYL    0.023302 
     90 H32        10.034992   20.915036   11.843874 H         3 ISOPROPYL    0.023302 
     91 H33         9.284382   19.528005   12.672450 H         3 ISOPROPYL    0.023302 
     92 H34         8.598088   20.132737   11.133436 H         3 ISOPROPYL    0.023302 
     93 H35        10.100912   17.671939    0.110971 H         4 ISOPROPYL    0.031747 
     94 H36        12.557282   17.282989   -0.110158 H         4 ISOPROPYL    0.023301 
     95 H37        12.856980   18.180790    1.403253 H         4 ISOPROPYL    0.023301 
     96 H38        12.173637   19.017212   -0.010925 H         4 ISOPROPYL    0.023301 
     97 H39        10.134831   19.835766    1.308683 H         4 ISOPROPYL    0.023301 
     98 H40        10.752486   19.057492    2.789090 H         4 ISOPROPYL    0.023301 
     99 H41         9.114537   18.669797    2.192987 H         4 ISOPROPYL    0.023301 
    100 H42        10.788580   17.714824    5.522952 H         5 OH          0.209942 
    101 H43        11.073494   13.259012    5.542255 H         1 PHENYL      0.123028 
    102 H44        12.902423   11.098723   -5.525043 H         1 PHENYL      0.061824 
    103 H45        13.789486   13.727197    4.319437 H         7 <7>         0.047363 
    104 H46        12.345299   13.136163    3.460167 H         7 <7>         0.047363 
    105 H47        14.688885   11.704991    3.047838 H         6 PHENYL      0.062149 
    106 H48        15.488703    9.397890    3.439531 H         6 PHENYL      0.064336 
    107 H49        12.784677    9.039209    6.766055 H         6 PHENYL      0.064336 
    108 H50        11.998190   11.304850    6.385847 H         6 PHENYL      0.062149 
    109 H51        10.756418   12.179132   -4.778310 H         1 PHENYL      0.063930 
    110 H52        14.793909    5.951627    6.301557 H         6 PHENYL      0.052869 
    111 H53        13.170336    6.690148    6.274647 H         6 PHENYL      0.052869 
    112 H54        14.456933    7.350767    7.356860 H         6 PHENYL      0.052869 
@<TRIPOS>BOND
     1    1    2 ar   
     2    1    6 ar   
     3    6    5 ar   
     4    5    4 ar   
     5    4    3 ar   
     6    3    2 ar   
     7    1    7 1    
     8    7    8 1    
     9    8    9 1    
    10    9   10 am   
    11   10   11 1    
    12   11   12 1    
    13   12   13 am   
    14   13   14 1    
    15   14   15 1    
    16   15   16 1    
    17   16   17 1    
    18   17   18 am   
    19   18   19 1    
    20   19   20 1    
    21   20   21 1    
    22   21   22 1    
    23   22   23 2    
    24   23   24 1    
    25   24   25 ar   
    26   25   26 1    
    27   22   26 1    
    28   25   27 ar   
    29   27   28 ar   
    30    9   29 2    
    31   12   30 2    
    32   17   31 2    
    33   20   32 2    
    34   14   33 1    
    35   34   35 ar   
    36   34   39 ar   
    37   39   38 ar   
    38   38   37 ar   
    39   37   36 ar   
    40   36   35 ar   
    41   33   34 1    
    42   40   41 1    
    43   40   42 1    
    44   11   40 1    
    45   43   44 1    
    46   43   45 1    
    47   19   43 1    
    48   16   47 1    
    49   15   46 1    
    50   49   47 1    
    51   28   48 ar   
    52   50   51 ar   
    53   50   55 ar   
    54   55   54 ar   
    55   54   53 ar   
    56   53   52 ar   
    57   52   51 ar   
    58   49   50 1    
    59   48   56 ar   
    60   24   56 ar   
    61   53   57 1    
    62   57   58 1    
    63    2   59 1    
    64    3   60 1    
    65    4   61 1    
    66    5   62 1    
    67    6   63 1    
    68    7   64 1    
    69    7   65 1    
    70   10   66 1    
    71   11   67 1    
    72   13   68 1    
    73   14   69 1    
    74   15   70 1    
    75   16   71 1    
    76   18   72 1    
    77   19   73 1    
    78   21   74 1    
    79   21   75 1    
    80   26   76 1    
    81   27   77 1    
    82   28   78 1    
    83   33   79 1    
    84   33   80 1    
    85   35   81 1    
    86   36   82 1    
    87   37   83 1    
    88   38   84 1    
    89   39   85 1    
    90   40   86 1    
    91   41   87 1    
    92   41   88 1    
    93   41   89 1    
    94   42   90 1    
    95   42   91 1    
    96   42   92 1    
    97   43   93 1    
    98   44   94 1    
    99   44   95 1    
   100   44   96 1    
   101   45   97 1    
   102   45   98 1    
   103   45   99 1    
   104   46  100 1    
   105   47  101 1    
   106   48  102 1    
   107   49  103 1    
   108   49  104 1    
   109   51  105 1    
   110   52  106 1    
   111   54  107 1    
   112   55  108 1    
   113   56  109 1    
   114   58  110 1    
   115   58  111 1    
   116   58  112 1    
@<TRIPOS>SUBSTRUCTURE
     1 PHENYL      1 PERM              0 ****  ****    5  
     2 PHENYL     34 PERM              0 ****  ****    1  
     3 ISOPROPYL    40 PERM              0 ****  ****    1  
     4 ISOPROPYL    43 PERM              0 ****  ****    1  
     5 OH         46 PERM              0 ****  ****    1  
     6 PHENYL     50 PERM              0 ****  ****    1  
     7 ****       49 PERM              0 ****  ****    2 ROOT 
@<TRIPOS>NORMAL
@<TRIPOS>FF_PBC
FORCE_FIELD_SETUP_FEATURE Force Field Setup information
v1.0  0 0.000000 0.000000 0.000000 0.000000 0.000000 0.000000 NONE 0 0 0 0 1 0 0 0 0 0 0 0 0
