#	Name:			Sc44
#	Creating user name:	nsalim
#	Creation time:		Wed Feb  9 14:56:37 2005

#	Modifying user name:	nsalim
#	Modification time:	Wed Feb  9 14:56:47 2005

@<TRIPOS>MOLECULE
Sc44
  108   112     7     1     0
SMALL
GASTEIGER


@<TRIPOS>ATOM
      1 C1          6.432437   15.819783   15.232972 C.ar      1 PHENYL     -0.021282 
      2 C           5.748931   16.312679   16.351269 C.ar      1 PHENYL     -0.056372 
      3 C           5.685379   15.562351   17.529258 C.ar      1 PHENYL     -0.061429 
      4 C           6.299455   14.308732   17.594671 C.ar      1 PHENYL     -0.061740 
      5 C           6.970927   13.805003   16.477384 C.ar      1 PHENYL     -0.061429 
      6 C           7.031722   14.556658   15.300176 C.ar      1 PHENYL     -0.056372 
      7 C7          6.530884   16.648535   13.945032 C.3       1 PHENYL      0.083653 
      8 O8          7.826443   16.437863   13.348061 O.3       1 PHENYL     -0.295140 
      9 C9          8.030770   17.134703   12.221302 C.2       1 PHENYL      0.353139 
     10 N10         9.261798   16.925928   11.709255 N.am      1 PHENYL     -0.279805 
     11 C11         9.720055   17.641600   10.515489 C.3       1 PHENYL      0.103775 
     12 C12        10.608672   16.736561    9.682485 C.2       1 PHENYL      0.233986 
     13 N13        11.031537   17.173571    8.468789 N.am      1 PHENYL     -0.308078 
     14 C14        11.912221   16.403623    7.574599 C.3       1 PHENYL      0.054959 
     15 C15        11.009265   15.915270    6.401163 C.3       1 PHENYL      0.097537 
     16 C16        11.773266   15.217338    5.237986 C.3       1 PHENYL      0.112914 
     17 C17        10.980880   15.362823    3.955668 C.2       1 PHENYL      0.233214 
     18 N18        11.276248   16.356890    3.085005 N.am      1 PHENYL     -0.304046 
     19 C19        10.621651   16.375670    1.777141 C.3       1 PHENYL      0.084177 
     20 C20        11.206570   15.230676    0.978741 C.2       1 PHENYL      0.160624 
     21 C21        10.346181   14.567747   -0.068244 C.3       1 PHENYL      0.063722 
     22 C22        11.156170   13.849640   -1.115631 C.2       1 PHENYL      0.107254 
     23 N23        10.696655   13.532180   -2.255324 N.2       1 PHENYL     -0.234597 
     24 C24        11.638311   12.893989   -2.964277 C.ar      1 PHENYL      0.086723 
     25 C25        12.742283   12.851668   -2.127420 C.ar      1 PHENYL      0.057921 
     26 N26        12.395418   13.463651   -0.971385 N.pl3     1 PHENYL     -0.300855 
     27 C27        13.937948   12.255557   -2.522720 C.ar      1 PHENYL     -0.038435 
     28 C28        13.957882   11.700830   -3.811071 C.ar      1 PHENYL     -0.059877 
     29 O29         7.193014   17.876835   11.733140 O.2       1 PHENYL     -0.241337 
     30 O30        10.897238   15.653016   10.161700 O.2       1 PHENYL     -0.273760 
     31 O31        10.097346   14.550474    3.732213 O.2       1 PHENYL     -0.273988 
     32 O32        12.342091   14.838182    1.202907 O.2       1 PHENYL     -0.294979 
     33 C33        12.766161   15.284895    8.249141 C.3       1 PHENYL     -0.006715 
     34 C          13.983177   14.744315    7.468894 C.ar      2 PHENYL     -0.045529 
     35 C          14.204207   13.362014    7.402789 C.ar      2 PHENYL     -0.058512 
     36 C          15.277457   12.836696    6.677317 C.ar      2 PHENYL     -0.061501 
     37 C          16.134207   13.692222    5.981780 C.ar      2 PHENYL     -0.061742 
     38 C          15.945556   15.073585    6.067598 C.ar      2 PHENYL     -0.061501 
     39 C          14.902808   15.594489    6.839885 C.ar      2 PHENYL     -0.058512 
     40 C1         10.479717   18.940407   10.930343 C.3       3 ISOPROPYL   -0.019657 
     41 C2         11.769111   18.619961   11.737210 C.3       3 ISOPROPYL   -0.060524 
     42 C3          9.567763   19.901449   11.742520 C.3       3 ISOPROPYL   -0.060524 
     43 C1         10.742506   17.731040    1.012318 C.3       4 ISOPROPYL   -0.021342 
     44 C2         12.193223   18.038234    0.542080 C.3       4 ISOPROPYL   -0.060581 
     45 C3         10.182236   18.901953    1.867657 C.3       4 ISOPROPYL   -0.060581 
     46 O1         10.260088   17.043757    5.900581 O.3       5 OH         -0.387906 
     47 N47        12.013842   13.773554    5.493628 N.3       1 PHENYL     -0.299550 
     48 C48        12.832596   11.746764   -4.653755 C.ar      1 PHENYL     -0.059637 
     49 C49        12.852012   13.123619    4.453841 C.3       7 <7>         0.021998 
     50 C          13.284737   11.677664    4.745186 C.ar      6 PHENYL     -0.033472 
     51 C          14.270712   11.105849    3.931536 C.ar      6 PHENYL     -0.055972 
     52 C          14.724945    9.805182    4.165882 C.ar      6 PHENYL     -0.043090 
     53 C          14.187426    9.057696    5.215742 C.ar      6 PHENYL      0.040994 
     54 C          13.192159    9.613588    6.022875 C.ar      6 PHENYL     -0.043090 
     55 C          12.740767   10.915683    5.787093 C.ar      6 PHENYL     -0.055972 
     56 C56        11.634379   12.351266   -4.246423 C.ar      1 PHENYL     -0.034441 
     57 Cl57       14.759105    7.429866    5.518155 Cl        6 PHENYL     -0.083541 
     58 H1          5.262212   17.281974   16.312332 H         1 PHENYL      0.062101 
     59 H2          5.158607   15.953392   18.394530 H         1 PHENYL      0.061767 
     60 H3          6.254579   13.727491   18.510716 H         1 PHENYL      0.061758 
     61 H4          7.445556   12.829509   16.523972 H         1 PHENYL      0.061767 
     62 H5          7.548649   14.152792   14.435380 H         1 PHENYL      0.062101 
     63 H6          6.394056   17.717150   14.180042 H         1 PHENYL      0.061655 
     64 H7          5.725072   16.318459   13.269680 H         1 PHENYL      0.061655 
     65 H8          9.895196   16.288363   12.153371 H         1 PHENYL      0.151734 
     66 H9          8.864161   17.904900    9.871508 H         1 PHENYL      0.059775 
     67 H10        10.695152   18.049191    8.114772 H         1 PHENYL      0.149127 
     68 H11        12.614134   17.140246    7.156746 H         1 PHENYL      0.052746 
     69 H12        10.257102   15.220522    6.806808 H         1 PHENYL      0.063235 
     70 H13        12.738116   15.730323    5.111918 H         1 PHENYL      0.058313 
     71 H14        12.007336   17.009949    3.272873 H         1 PHENYL      0.149445 
     72 H15         9.544052   16.186289    1.923267 H         1 PHENYL      0.057989 
     73 H16         9.707955   15.306024   -0.574673 H         1 PHENYL      0.041914 
     74 H17         9.702912   13.829210    0.431716 H         1 PHENYL      0.041914 
     75 H18        12.991363   13.599855   -0.139368 H         1 PHENYL      0.153326 
     76 H19        14.799868   12.226281   -1.865096 H         1 PHENYL      0.063671 
     77 H20        14.866911   11.223897   -4.164955 H         1 PHENYL      0.061817 
     78 H21        12.095669   14.447600    8.493641 H         1 PHENYL      0.033193 
     79 H22        13.191222   15.685361    9.182643 H         1 PHENYL      0.033193 
     80 H23        13.543860   12.676782    7.923226 H         2 PHENYL      0.062030 
     81 H24        15.445209   11.764002    6.652398 H         2 PHENYL      0.061766 
     82 H25        16.942211   13.285458    5.381412 H         2 PHENYL      0.061758 
     83 H26        16.614711   15.743676    5.536146 H         2 PHENYL      0.061766 
     84 H27        14.831521   16.670020    6.947520 H         2 PHENYL      0.062030 
     85 H28        10.783655   19.483812   10.019089 H         3 ISOPROPYL    0.031803 
     86 H29        12.446617   17.974032   11.157534 H         3 ISOPROPYL    0.023302 
     87 H30        11.522834   18.112827   12.682091 H         3 ISOPROPYL    0.023302 
     88 H31        12.307739   19.550376   11.976390 H         3 ISOPROPYL    0.023302 
     89 H32        10.090258   20.851854   11.934712 H         3 ISOPROPYL    0.023302 
     90 H33         9.295820   19.460009   12.712942 H         3 ISOPROPYL    0.023302 
     91 H34         8.646070   20.123890   11.182459 H         3 ISOPROPYL    0.023302 
     92 H35        10.119903   17.664922    0.102265 H         4 ISOPROPYL    0.031747 
     93 H36        12.570371   17.239616   -0.114996 H         4 ISOPROPYL    0.023301 
     94 H37        12.882096   18.144237    1.391941 H         4 ISOPROPYL    0.023301 
     95 H38        12.211240   18.979889   -0.028702 H         4 ISOPROPYL    0.023301 
     96 H39        10.182778   19.836166    1.284447 H         4 ISOPROPYL    0.023301 
     97 H40        10.789478   19.061027    2.770777 H         4 ISOPROPYL    0.023301 
     98 H41         9.146762   18.690628    2.177066 H         4 ISOPROPYL    0.023301 
     99 H42        10.802523   17.725051    5.516732 H         5 OH          0.209942 
    100 H43        11.058573   13.265977    5.557878 H         1 PHENYL      0.123028 
    101 H44        12.890725   11.304222   -5.643561 H         1 PHENYL      0.061824 
    102 H45        13.776363   13.709586    4.330867 H         7 <7>         0.047363 
    103 H46        12.330516   13.106519    3.482736 H         7 <7>         0.047363 
    104 H47        14.691590   11.674912    3.108170 H         6 PHENYL      0.062113 
    105 H48        15.494605    9.373780    3.534092 H         6 PHENYL      0.063215 
    106 H49        12.770410    9.030238    6.834881 H         6 PHENYL      0.063215 
    107 H50        11.966563   11.318159    6.428375 H         6 PHENYL      0.062113 
    108 H51        10.756644   12.397460   -4.881560 H         1 PHENYL      0.063930 
@<TRIPOS>BOND
     1    1    2 ar   
     2    1    6 ar   
     3    6    5 ar   
     4    5    4 ar   
     5    4    3 ar   
     6    3    2 ar   
     7    1    7 1    
     8    7    8 1    
     9    8    9 1    
    10    9   10 am   
    11   10   11 1    
    12   11   12 1    
    13   12   13 am   
    14   13   14 1    
    15   14   15 1    
    16   15   16 1    
    17   16   17 1    
    18   17   18 am   
    19   18   19 1    
    20   19   20 1    
    21   20   21 1    
    22   21   22 1    
    23   22   23 2    
    24   23   24 1    
    25   24   25 ar   
    26   25   26 1    
    27   22   26 1    
    28   25   27 ar   
    29   27   28 ar   
    30    9   29 2    
    31   12   30 2    
    32   17   31 2    
    33   20   32 2    
    34   14   33 1    
    35   34   35 ar   
    36   34   39 ar   
    37   39   38 ar   
    38   38   37 ar   
    39   37   36 ar   
    40   36   35 ar   
    41   33   34 1    
    42   40   41 1    
    43   40   42 1    
    44   11   40 1    
    45   43   44 1    
    46   43   45 1    
    47   19   43 1    
    48   16   47 1    
    49   15   46 1    
    50   49   47 1    
    51   28   48 ar   
    52   50   51 ar   
    53   50   55 ar   
    54   55   54 ar   
    55   54   53 ar   
    56   53   52 ar   
    57   52   51 ar   
    58   49   50 1    
    59   48   56 ar   
    60   24   56 ar   
    61   53   57 1    
    62    2   58 1    
    63    3   59 1    
    64    4   60 1    
    65    5   61 1    
    66    6   62 1    
    67    7   63 1    
    68    7   64 1    
    69   10   65 1    
    70   11   66 1    
    71   13   67 1    
    72   14   68 1    
    73   15   69 1    
    74   16   70 1    
    75   18   71 1    
    76   19   72 1    
    77   21   73 1    
    78   21   74 1    
    79   26   75 1    
    80   27   76 1    
    81   28   77 1    
    82   33   78 1    
    83   33   79 1    
    84   35   80 1    
    85   36   81 1    
    86   37   82 1    
    87   38   83 1    
    88   39   84 1    
    89   40   85 1    
    90   41   86 1    
    91   41   87 1    
    92   41   88 1    
    93   42   89 1    
    94   42   90 1    
    95   42   91 1    
    96   43   92 1    
    97   44   93 1    
    98   44   94 1    
    99   44   95 1    
   100   45   96 1    
   101   45   97 1    
   102   45   98 1    
   103   46   99 1    
   104   47  100 1    
   105   48  101 1    
   106   49  102 1    
   107   49  103 1    
   108   51  104 1    
   109   52  105 1    
   110   54  106 1    
   111   55  107 1    
   112   56  108 1    
@<TRIPOS>SUBSTRUCTURE
     1 PHENYL      1 PERM              0 ****  ****    5  
     2 PHENYL     34 PERM              0 ****  ****    1  
     3 ISOPROPYL    40 PERM              0 ****  ****    1  
     4 ISOPROPYL    43 PERM              0 ****  ****    1  
     5 OH         46 PERM              0 ****  ****    1  
     6 PHENYL     50 PERM              0 ****  ****    1  
     7 ****       49 PERM              0 ****  ****    2 ROOT 
@<TRIPOS>NORMAL
@<TRIPOS>FF_PBC
FORCE_FIELD_SETUP_FEATURE Force Field Setup information
v1.0  0 0.000000 0.000000 0.000000 0.000000 0.000000 0.000000 NONE 0 0 0 0 1 0 0 0 0 0 0 0 0
