#	Name:			Sc46
#	Creating user name:	nsalim
#	Creation time:		Wed Feb  9 14:57:58 2005

#	Modifying user name:	nsalim
#	Modification time:	Wed Feb  9 14:58:08 2005

@<TRIPOS>MOLECULE
Sc46
  115   119     7     1     0
SMALL
GASTEIGER


@<TRIPOS>ATOM
      1 C1          6.060932   15.511071   14.826787 C.ar      1 PHENYL     -0.021282 
      2 C           5.354511   15.948002   15.954186 C.ar      1 PHENYL     -0.056372 
      3 C           5.208047   15.111537   17.064946 C.ar      1 PHENYL     -0.061429 
      4 C           5.760921   13.828065   17.052597 C.ar      1 PHENYL     -0.061740 
      5 C           6.454775   13.381210   15.924821 C.ar      1 PHENYL     -0.061429 
      6 C           6.599449   14.219350   14.815365 C.ar      1 PHENYL     -0.056372 
      7 C7          6.253832   16.427447   13.611091 C.3       1 PHENYL      0.083653 
      8 O8          7.599383   16.262065   13.120153 O.3       1 PHENYL     -0.295140 
      9 C9          7.899740   17.040377   12.070946 C.2       1 PHENYL      0.353147 
     10 N10         9.177566   16.878604   11.666704 N.am      1 PHENYL     -0.279543 
     11 C11         9.744174   17.685286   10.580629 C.3       1 PHENYL      0.106304 
     12 C12        10.678502   16.810573    9.762988 C.2       1 PHENYL      0.234250 
     13 N13        10.916472   17.120712    8.461137 N.am      1 PHENYL     -0.308071 
     14 C14        11.853482   16.397241    7.583691 C.3       1 PHENYL      0.054959 
     15 C15        10.983575   15.878360    6.396345 C.3       1 PHENYL      0.097537 
     16 C16        11.773139   15.219191    5.227381 C.3       1 PHENYL      0.112914 
     17 C17        10.988015   15.364120    3.940176 C.2       1 PHENYL      0.233214 
     18 N18        11.291462   16.354711    3.068061 N.am      1 PHENYL     -0.304046 
     19 C19        10.646392   16.369780    1.755175 C.3       1 PHENYL      0.084177 
     20 C20        11.214967   15.205826    0.972057 C.2       1 PHENYL      0.160624 
     21 C21        10.361549   14.563871   -0.093277 C.3       1 PHENYL      0.063722 
     22 C22        11.194487   13.960699   -1.193302 C.2       1 PHENYL      0.107254 
     23 N23        10.770605   13.779199   -2.375635 N.2       1 PHENYL     -0.234597 
     24 C24        11.730263   13.213787   -3.121312 C.ar      1 PHENYL      0.086723 
     25 C25        12.805213   13.063875   -2.259144 C.ar      1 PHENYL      0.057921 
     26 N26        12.424806   13.546091   -1.053222 N.pl3     1 PHENYL     -0.300855 
     27 C27        14.008158   12.501164   -2.680073 C.ar      1 PHENYL     -0.038435 
     28 C28        14.066601   12.094519   -4.021507 C.ar      1 PHENYL     -0.059877 
     29 O29         7.101346   17.810045   11.559932 O.2       1 PHENYL     -0.241337 
     30 O30        11.165168   15.855697   10.344925 O.2       1 PHENYL     -0.273750 
     31 O31        10.102999   14.553940    3.713899 O.2       1 PHENYL     -0.273988 
     32 O32        12.332853   14.779112    1.220190 O.2       1 PHENYL     -0.294979 
     33 C33        12.750992   15.312650    8.256787 C.3       1 PHENYL     -0.006715 
     34 C          13.944861   14.763754    7.449519 C.ar      2 PHENYL     -0.045529 
     35 C          14.169843   13.381897    7.392851 C.ar      2 PHENYL     -0.058512 
     36 C          15.254168   12.858713    6.682469 C.ar      2 PHENYL     -0.061501 
     37 C          16.098574   13.711586    5.968623 C.ar      2 PHENYL     -0.061742 
     38 C          15.888742   15.091502    6.022634 C.ar      2 PHENYL     -0.061501 
     39 C          14.842784   15.613585    6.789790 C.ar      2 PHENYL     -0.058512 
     40 C1         10.475174   18.948814   11.152995 C.3       3 ISOPROPYL   -0.010742 
     41 C2         11.651949   18.531066   12.084718 C.3       3 ISOPROPYL   -0.057916 
     42 C3          9.471931   19.812015   11.976061 C.3       3 ISOPROPYL   -0.057916 
     43 C1         10.799814   17.712152    0.973285 C.3       4 ISOPROPYL   -0.021342 
     44 C2         12.261017   17.985740    0.515025 C.3       4 ISOPROPYL   -0.060581 
     45 C3         10.251154   18.905531    1.804710 C.3       4 ISOPROPYL   -0.060581 
     46 O1         10.197147   16.983616    5.899819 O.3       5 OH         -0.387906 
     47 N47        12.049538   13.777197    5.456784 N.3       1 PHENYL     -0.299550 
     48 C48        12.970961   12.249338   -4.889757 C.ar      1 PHENYL     -0.059637 
     49 C49        12.886427   13.161941    4.394619 C.3       7 <7>         0.021999 
     50 C          13.389395   11.735885    4.672038 C.ar      6 PHENYL     -0.033401 
     51 C          14.446344   11.243009    3.896271 C.ar      6 PHENYL     -0.054912 
     52 C          14.963141    9.964284    4.121862 C.ar      6 PHENYL     -0.031394 
     53 C          14.406309    9.153069    5.112420 C.ar      6 PHENYL      0.075831 
     54 C          13.347286    9.632222    5.885679 C.ar      6 PHENYL     -0.031394 
     55 C          12.840140   10.916656    5.666945 C.ar      6 PHENYL     -0.054912 
     56 C56        11.765098   12.819187   -4.456085 C.ar      1 PHENYL     -0.034441 
     57 O57        14.904273    7.869391    5.332598 O.3       6 PHENYL     -0.347912 
     58 C58        11.047639   19.833671   10.004279 C.3       3 ISOPROPYL   -0.057916 
     59 C59        14.465732    6.898987    4.368132 C.3       6 PHENYL      0.043026 
     60 H1          4.914414   16.939859   15.975445 H         1 PHENYL      0.062101 
     61 H2          4.664551   15.458928   17.938417 H         1 PHENYL      0.061767 
     62 H3          5.651382   13.179799   17.916747 H         1 PHENYL      0.061758 
     63 H4          6.881774   12.382975   15.910780 H         1 PHENYL      0.061767 
     64 H5          7.134394   13.861831   13.941038 H         1 PHENYL      0.062101 
     65 H6          6.083464   17.477130   13.902424 H         1 PHENYL      0.061655 
     66 H7          5.514555   16.137905   12.846921 H         1 PHENYL      0.061655 
     67 H8          9.771111   16.210915   12.122141 H         1 PHENYL      0.151744 
     68 H9          8.937611   18.012310    9.904510 H         1 PHENYL      0.060047 
     69 H10        10.418386   17.879034    8.033821 H         1 PHENYL      0.149127 
     70 H11        12.525997   17.170785    7.183490 H         1 PHENYL      0.052746 
     71 H12        10.254820   15.153924    6.792409 H         1 PHENYL      0.063235 
     72 H13        12.723317   15.761270    5.117944 H         1 PHENYL      0.058313 
     73 H14        12.021192   17.008357    3.259474 H         1 PHENYL      0.149445 
     74 H15         9.564892   16.201668    1.897599 H         1 PHENYL      0.057989 
     75 H16         9.668629   15.290393   -0.541598 H         1 PHENYL      0.041914 
     76 H17         9.774863   13.759825    0.373932 H         1 PHENYL      0.041914 
     77 H18        12.993717   13.581636   -0.192379 H         1 PHENYL      0.153326 
     78 H19        14.847181   12.387303   -2.002339 H         1 PHENYL      0.063671 
     79 H20        14.982728   11.648751   -4.397040 H         1 PHENYL      0.061817 
     80 H21        12.099789   14.484100    8.574233 H         1 PHENYL      0.033193 
     81 H22        13.230938   15.753812    9.144085 H         1 PHENYL      0.033193 
     82 H23        13.505049   12.696840    7.908442 H         2 PHENYL      0.062030 
     83 H24        15.440438   11.788726    6.683010 H         2 PHENYL      0.061766 
     84 H25        16.913119   13.303777    5.378000 H         2 PHENYL      0.061758 
     85 H26        16.543460   15.759450    5.470933 H         2 PHENYL      0.061766 
     86 H27        14.749611   16.690013    6.869471 H         2 PHENYL      0.062030 
     87 H28        11.290294   17.947902   12.944279 H         3 ISOPROPYL    0.023560 
     88 H29        12.166134   19.422645   12.475546 H         3 ISOPROPYL    0.023560 
     89 H30        12.391525   17.924986   11.540111 H         3 ISOPROPYL    0.023560 
     90 H31         8.609543   20.099775   11.355365 H         3 ISOPROPYL    0.023560 
     91 H32         9.953814   20.732585   12.339568 H         3 ISOPROPYL    0.023560 
     92 H33         9.104133   19.264228   12.856005 H         3 ISOPROPYL    0.023560 
     93 H34        10.186797   17.644921    0.056861 H         4 ISOPROPYL    0.031747 
     94 H35        12.630589   17.170709   -0.126105 H         4 ISOPROPYL    0.023301 
     95 H36        12.942302   18.091620    1.371004 H         4 ISOPROPYL    0.023301 
     96 H37        12.302424   18.918408   -0.069132 H         4 ISOPROPYL    0.023301 
     97 H38        10.275083   19.830386    1.207253 H         4 ISOPROPYL    0.023301 
     98 H39        10.850579   19.068121    2.712393 H         4 ISOPROPYL    0.023301 
     99 H40         9.208572   18.717216    2.104921 H         4 ISOPROPYL    0.023301 
    100 H41        10.716412   17.679803    5.509859 H         5 OH          0.209942 
    101 H42        11.107261   13.247322    5.528108 H         1 PHENYL      0.123028 
    102 H43        13.058617   11.920416   -5.920826 H         1 PHENYL      0.061824 
    103 H44        13.778853   13.790362    4.247107 H         7 <7>         0.047363 
    104 H45        12.340956   13.118575    3.437825 H         7 <7>         0.047363 
    105 H46        14.875375   11.856136    3.109755 H         6 PHENYL      0.062149 
    106 H47        15.796471    9.598551    3.531599 H         6 PHENYL      0.064336 
    107 H48        12.922298    8.998753    6.657021 H         6 PHENYL      0.064336 
    108 H49        12.019272   11.259998    6.283895 H         6 PHENYL      0.062149 
    109 H50        10.909823   12.947875   -5.110227 H         1 PHENYL      0.063930 
    110 H51        11.845564   19.310449    9.457133 H         3 ISOPROPYL    0.023560 
    111 H52        11.483371   20.760955   10.407191 H         3 ISOPROPYL    0.023560 
    112 H53        10.252391   20.112842    9.296309 H         3 ISOPROPYL    0.023560 
    113 H54        14.898271    5.924550    4.638658 H         6 PHENYL      0.052869 
    114 H55        14.802445    7.163936    3.353938 H         6 PHENYL      0.052869 
    115 H56        13.367847    6.813275    4.376701 H         6 PHENYL      0.052869 
@<TRIPOS>BOND
     1    1    2 ar   
     2    1    6 ar   
     3    6    5 ar   
     4    5    4 ar   
     5    4    3 ar   
     6    3    2 ar   
     7    1    7 1    
     8    7    8 1    
     9    8    9 1    
    10    9   10 am   
    11   10   11 1    
    12   11   12 1    
    13   12   13 am   
    14   13   14 1    
    15   14   15 1    
    16   15   16 1    
    17   16   17 1    
    18   17   18 am   
    19   18   19 1    
    20   19   20 1    
    21   20   21 1    
    22   21   22 1    
    23   22   23 2    
    24   23   24 1    
    25   24   25 ar   
    26   25   26 1    
    27   22   26 1    
    28   25   27 ar   
    29   27   28 ar   
    30    9   29 2    
    31   12   30 2    
    32   17   31 2    
    33   20   32 2    
    34   14   33 1    
    35   34   35 ar   
    36   34   39 ar   
    37   39   38 ar   
    38   38   37 ar   
    39   37   36 ar   
    40   36   35 ar   
    41   33   34 1    
    42   40   41 1    
    43   40   42 1    
    44   11   40 1    
    45   43   44 1    
    46   43   45 1    
    47   19   43 1    
    48   16   47 1    
    49   15   46 1    
    50   49   47 1    
    51   28   48 ar   
    52   50   51 ar   
    53   50   55 ar   
    54   55   54 ar   
    55   54   53 ar   
    56   53   52 ar   
    57   52   51 ar   
    58   49   50 1    
    59   48   56 ar   
    60   24   56 ar   
    61   53   57 1    
    62   40   58 1    
    63   57   59 1    
    64    2   60 1    
    65    3   61 1    
    66    4   62 1    
    67    5   63 1    
    68    6   64 1    
    69    7   65 1    
    70    7   66 1    
    71   10   67 1    
    72   11   68 1    
    73   13   69 1    
    74   14   70 1    
    75   15   71 1    
    76   16   72 1    
    77   18   73 1    
    78   19   74 1    
    79   21   75 1    
    80   21   76 1    
    81   26   77 1    
    82   27   78 1    
    83   28   79 1    
    84   33   80 1    
    85   33   81 1    
    86   35   82 1    
    87   36   83 1    
    88   37   84 1    
    89   38   85 1    
    90   39   86 1    
    91   41   87 1    
    92   41   88 1    
    93   41   89 1    
    94   42   90 1    
    95   42   91 1    
    96   42   92 1    
    97   43   93 1    
    98   44   94 1    
    99   44   95 1    
   100   44   96 1    
   101   45   97 1    
   102   45   98 1    
   103   45   99 1    
   104   46  100 1    
   105   47  101 1    
   106   48  102 1    
   107   49  103 1    
   108   49  104 1    
   109   51  105 1    
   110   52  106 1    
   111   54  107 1    
   112   55  108 1    
   113   56  109 1    
   114   58  110 1    
   115   58  111 1    
   116   58  112 1    
   117   59  113 1    
   118   59  114 1    
   119   59  115 1    
@<TRIPOS>SUBSTRUCTURE
     1 PHENYL      1 PERM              0 ****  ****    5  
     2 PHENYL     34 PERM              0 ****  ****    1  
     3 ISOPROPYL    40 PERM              0 ****  ****    1  
     4 ISOPROPYL    43 PERM              0 ****  ****    1  
     5 OH         46 PERM              0 ****  ****    1  
     6 PHENYL     50 PERM              0 ****  ****    1  
     7 ****       49 PERM              0 ****  ****    2 ROOT 
@<TRIPOS>NORMAL
@<TRIPOS>FF_PBC
FORCE_FIELD_SETUP_FEATURE Force Field Setup information
v1.0  0 0.000000 0.000000 0.000000 0.000000 0.000000 0.000000 NONE 0 0 0 0 1 0 0 0 0 0 0 0 0
