#	Name:			Sc47
#	Creating user name:	nsalim
#	Creation time:		Wed Feb  9 14:58:35 2005

#	Modifying user name:	nsalim
#	Modification time:	Wed Feb  9 14:58:46 2005

@<TRIPOS>MOLECULE
Sc47
  116   120     7     1     0
SMALL
GASTEIGER


@<TRIPOS>ATOM
      1 C1          5.711259   15.434772   14.466614 C.ar      1 PHENYL     -0.021126 
      2 C           4.970412   15.829136   15.587319 C.ar      1 PHENYL     -0.053942 
      3 C           4.713520   14.924672   16.622502 C.ar      1 PHENYL     -0.031610 
      4 C           5.191068   13.610491   16.544073 C.ar      1 PHENYL      0.072600 
      5 C           5.916481   13.212628   15.418661 C.ar      1 PHENYL     -0.031610 
      6 C           6.172367   14.116464   14.383503 C.ar      1 PHENYL     -0.053942 
      7 C7          6.025243   16.424646   13.336995 C.3       1 PHENYL      0.083655 
      8 O8          7.382132   16.206667   12.901099 O.3       1 PHENYL     -0.295140 
      9 C9          7.784847   17.034865   11.927071 C.2       1 PHENYL      0.353147 
     10 N10         9.068167   16.815469   11.570246 N.am      1 PHENYL     -0.279543 
     11 C11         9.738021   17.651537   10.568430 C.3       1 PHENYL      0.106304 
     12 C12        10.649846   16.769953    9.733297 C.2       1 PHENYL      0.234250 
     13 N13        10.968142   17.145591    8.466717 N.am      1 PHENYL     -0.308071 
     14 C14        11.880156   16.402677    7.580292 C.3       1 PHENYL      0.054959 
     15 C15        10.994878   15.910409    6.394250 C.3       1 PHENYL      0.097537 
     16 C16        11.769728   15.225959    5.230586 C.3       1 PHENYL      0.112914 
     17 C17        10.980835   15.370117    3.945577 C.2       1 PHENYL      0.233214 
     18 N18        11.300352   16.341563    3.057633 N.am      1 PHENYL     -0.304046 
     19 C19        10.645313   16.353937    1.749470 C.3       1 PHENYL      0.084177 
     20 C20        11.173270   15.163031    0.978506 C.2       1 PHENYL      0.160624 
     21 C21        10.309898   14.551661   -0.096233 C.3       1 PHENYL      0.063722 
     22 C22        11.144237   14.041138   -1.240574 C.2       1 PHENYL      0.107254 
     23 N23        10.731914   13.971058   -2.438811 N.2       1 PHENYL     -0.234597 
     24 C24        11.694244   13.463591   -3.221896 C.ar      1 PHENYL      0.086723 
     25 C25        12.757409   13.224794   -2.365288 C.ar      1 PHENYL      0.057921 
     26 N26        12.368530   13.601743   -1.125158 N.pl3     1 PHENYL     -0.300855 
     27 C27        13.959080   12.687599   -2.821948 C.ar      1 PHENYL     -0.038435 
     28 C28        14.028642   12.401354   -4.193510 C.ar      1 PHENYL     -0.059877 
     29 O29         7.064185   17.890697   11.438188 O.2       1 PHENYL     -0.241337 
     30 O30        11.045818   15.747567   10.267249 O.2       1 PHENYL     -0.273750 
     31 O31        10.076894   14.576409    3.736200 O.2       1 PHENYL     -0.273988 
     32 O32        12.269415   14.689731    1.239241 O.2       1 PHENYL     -0.294979 
     33 C33        12.752258   15.294088    8.247387 C.3       1 PHENYL     -0.006715 
     34 C          13.955816   14.747988    7.451467 C.ar      2 PHENYL     -0.045529 
     35 C          14.178353   13.365555    7.393943 C.ar      2 PHENYL     -0.058512 
     36 C          15.253426   12.838555    6.672096 C.ar      2 PHENYL     -0.061501 
     37 C          16.101457   13.690313    5.961607 C.ar      2 PHENYL     -0.061742 
     38 C          15.903928   15.071349    6.029276 C.ar      2 PHENYL     -0.061501 
     39 C          14.863108   15.595463    6.801937 C.ar      2 PHENYL     -0.058512 
     40 C1         10.521088   18.822248   11.256925 C.3       3 ISOPROPYL   -0.010742 
     41 C2         11.613975   18.265177   12.217370 C.3       3 ISOPROPYL   -0.057916 
     42 C3          9.535530   19.703336   12.082509 C.3       3 ISOPROPYL   -0.057916 
     43 C1         10.831248   17.678241    0.944045 C.3       4 ISOPROPYL   -0.021342 
     44 C2         12.295922   17.900731    0.470549 C.3       4 ISOPROPYL   -0.060581 
     45 C3         10.324318   18.901243    1.758677 C.3       4 ISOPROPYL   -0.060581 
     46 O1         10.242656   17.036944    5.893569 O.3       5 OH         -0.387906 
     47 N47        12.022205   13.782537    5.476978 N.3       1 PHENYL     -0.299550 
     48 C48        12.944935   12.646137   -5.056100 C.ar      1 PHENYL     -0.059637 
     49 C49        12.850834   13.142836    4.423129 C.3       7 <7>         0.021999 
     50 C          13.315601   11.705486    4.707086 C.ar      6 PHENYL     -0.033401 
     51 C          14.332940   11.169013    3.907704 C.ar      6 PHENYL     -0.054912 
     52 C          14.810615    9.875006    4.132252 C.ar      6 PHENYL     -0.031394 
     53 C          14.258192    9.096207    5.150720 C.ar      6 PHENYL      0.075831 
     54 C          13.241251    9.620543    5.950632 C.ar      6 PHENYL     -0.031394 
     55 C          12.769576   10.917913    5.728852 C.ar      6 PHENYL     -0.054912 
     56 C56        11.740376   13.189429   -4.586147 C.ar      1 PHENYL     -0.034441 
     57 O57        14.719190    7.798995    5.369859 O.3       6 PHENYL     -0.347912 
     58 C58        11.214180   19.731760   10.197462 C.3       3 ISOPROPYL   -0.057916 
     59 C59        14.134569    6.823039    4.492776 C.3       6 PHENYL      0.043026 
     60 O60         4.957909   12.685895   17.566622 O.3       1 PHENYL     -0.359832 
     61 H1          4.588655   16.842701   15.661553 H         1 PHENYL      0.062180 
     62 H2          4.141452   15.251748   17.484785 H         1 PHENYL      0.064329 
     63 H3          6.281333   12.193060   15.354619 H         1 PHENYL      0.064329 
     64 H4          6.732556   13.789541   13.513146 H         1 PHENYL      0.062180 
     65 H5          5.905829   17.458492   13.701304 H         1 PHENYL      0.061655 
     66 H6          5.311008   16.243116   12.517515 H         1 PHENYL      0.061655 
     67 H7          9.594388   16.079803   12.002763 H         1 PHENYL      0.151744 
     68 H8          8.988193   18.076601    9.881494 H         1 PHENYL      0.060047 
     69 H9         10.541341   17.961406    8.069198 H         1 PHENYL      0.149127 
     70 H10        12.570698   17.159873    7.180523 H         1 PHENYL      0.052746 
     71 H11        10.243772   15.208337    6.788833 H         1 PHENYL      0.063235 
     72 H12        12.729220   15.749891    5.112607 H         1 PHENYL      0.058313 
     73 H13        12.045284   16.981600    3.235692 H         1 PHENYL      0.149445 
     74 H14         9.560731   16.219017    1.904037 H         1 PHENYL      0.057989 
     75 H15         9.578271   15.272238   -0.489458 H         1 PHENYL      0.041914 
     76 H16         9.766050   13.701810    0.340621 H         1 PHENYL      0.041914 
     77 H17        12.927995   13.554083   -0.258740 H         1 PHENYL      0.153326 
     78 H18        14.788807   12.503947   -2.148083 H         1 PHENYL      0.063671 
     79 H19        14.944068   11.979842   -4.597518 H         1 PHENYL      0.061817 
     80 H20        12.085708   14.463250    8.523652 H         1 PHENYL      0.033193 
     81 H21        13.208318   15.708332    9.160037 H         1 PHENYL      0.033193 
     82 H22        13.518546   12.682638    7.918072 H         2 PHENYL      0.062030 
     83 H23        15.429270   11.766964    6.661513 H         2 PHENYL      0.061766 
     84 H24        16.909401   13.280921    5.363150 H         2 PHENYL      0.061758 
     85 H25        16.564309   15.738703    5.483607 H         2 PHENYL      0.061766 
     86 H26        14.782963   16.671939    6.893397 H         2 PHENYL      0.062030 
     87 H27        11.167165   17.660433   13.020082 H         3 ISOPROPYL    0.023560 
     88 H28        12.167709   19.091919   12.688255 H         3 ISOPROPYL    0.023560 
     89 H29        12.337388   17.639538   11.673202 H         3 ISOPROPYL    0.023560 
     90 H30         8.730395   20.090136   11.439190 H         3 ISOPROPYL    0.023560 
     91 H31        10.058425   20.562874   12.529277 H         3 ISOPROPYL    0.023560 
     92 H32         9.082592   19.130568   12.904903 H         3 ISOPROPYL    0.023560 
     93 H33        10.210700   17.613492    0.032467 H         4 ISOPROPYL    0.031747 
     94 H34        12.634863   17.063859   -0.159399 H         4 ISOPROPYL    0.023301 
     95 H35        12.986345   18.000029    1.320028 H         4 ISOPROPYL    0.023301 
     96 H36        12.360508   18.821963   -0.129591 H         4 ISOPROPYL    0.023301 
     97 H37        10.369503   19.814331    1.144504 H         4 ISOPROPYL    0.023301 
     98 H38        10.935211   19.063206    2.658890 H         4 ISOPROPYL    0.023301 
     99 H39         9.279337   18.747145    2.069725 H         4 ISOPROPYL    0.023301 
    100 H40        10.783659   17.717419    5.505922 H         5 OH          0.209942 
    101 H41        11.071538   13.268242    5.552150 H         1 PHENYL      0.123028 
    102 H42        13.041054   12.409584   -6.111330 H         1 PHENYL      0.061824 
    103 H43        13.760193   13.747115    4.278351 H         7 <7>         0.047363 
    104 H44        12.309427   13.109439    3.463662 H         7 <7>         0.047363 
    105 H45        14.760524   11.759760    3.103362 H         6 PHENYL      0.062149 
    106 H46        15.609486    9.470832    3.519647 H         6 PHENYL      0.064336 
    107 H47        12.821021    9.012313    6.744582 H         6 PHENYL      0.064336 
    108 H48        11.978571   11.296198    6.364265 H         6 PHENYL      0.062149 
    109 H49        10.894324   13.386272   -5.235297 H         1 PHENYL      0.063930 
    110 H50        12.001660   19.186295    9.656971 H         3 ISOPROPYL    0.023560 
    111 H51        11.691246   20.598581   10.680113 H         3 ISOPROPYL    0.023560 
    112 H52        10.479450   20.110969    9.470949 H         3 ISOPROPYL    0.023560 
    113 H53        13.041625    6.788436    4.623781 H         6 PHENYL      0.052869 
    114 H54        14.552050    5.837275    4.745439 H         6 PHENYL      0.052869 
    115 H55        14.368662    7.045863    3.440098 H         6 PHENYL      0.052869 
    116 H56         4.488046   13.034894   18.315366 H         1 PHENYL      0.217313 
@<TRIPOS>BOND
     1    1    2 ar   
     2    1    6 ar   
     3    6    5 ar   
     4    5    4 ar   
     5    4    3 ar   
     6    3    2 ar   
     7    1    7 1    
     8    7    8 1    
     9    8    9 1    
    10    9   10 am   
    11   10   11 1    
    12   11   12 1    
    13   12   13 am   
    14   13   14 1    
    15   14   15 1    
    16   15   16 1    
    17   16   17 1    
    18   17   18 am   
    19   18   19 1    
    20   19   20 1    
    21   20   21 1    
    22   21   22 1    
    23   22   23 2    
    24   23   24 1    
    25   24   25 ar   
    26   25   26 1    
    27   22   26 1    
    28   25   27 ar   
    29   27   28 ar   
    30    9   29 2    
    31   12   30 2    
    32   17   31 2    
    33   20   32 2    
    34   14   33 1    
    35   34   35 ar   
    36   34   39 ar   
    37   39   38 ar   
    38   38   37 ar   
    39   37   36 ar   
    40   36   35 ar   
    41   33   34 1    
    42   40   41 1    
    43   40   42 1    
    44   11   40 1    
    45   43   44 1    
    46   43   45 1    
    47   19   43 1    
    48   16   47 1    
    49   15   46 1    
    50   49   47 1    
    51   28   48 ar   
    52   50   51 ar   
    53   50   55 ar   
    54   55   54 ar   
    55   54   53 ar   
    56   53   52 ar   
    57   52   51 ar   
    58   49   50 1    
    59   48   56 ar   
    60   24   56 ar   
    61   53   57 1    
    62   40   58 1    
    63   57   59 1    
    64    4   60 1    
    65    2   61 1    
    66    3   62 1    
    67    5   63 1    
    68    6   64 1    
    69    7   65 1    
    70    7   66 1    
    71   10   67 1    
    72   11   68 1    
    73   13   69 1    
    74   14   70 1    
    75   15   71 1    
    76   16   72 1    
    77   18   73 1    
    78   19   74 1    
    79   21   75 1    
    80   21   76 1    
    81   26   77 1    
    82   27   78 1    
    83   28   79 1    
    84   33   80 1    
    85   33   81 1    
    86   35   82 1    
    87   36   83 1    
    88   37   84 1    
    89   38   85 1    
    90   39   86 1    
    91   41   87 1    
    92   41   88 1    
    93   41   89 1    
    94   42   90 1    
    95   42   91 1    
    96   42   92 1    
    97   43   93 1    
    98   44   94 1    
    99   44   95 1    
   100   44   96 1    
   101   45   97 1    
   102   45   98 1    
   103   45   99 1    
   104   46  100 1    
   105   47  101 1    
   106   48  102 1    
   107   49  103 1    
   108   49  104 1    
   109   51  105 1    
   110   52  106 1    
   111   54  107 1    
   112   55  108 1    
   113   56  109 1    
   114   58  110 1    
   115   58  111 1    
   116   58  112 1    
   117   59  113 1    
   118   59  114 1    
   119   59  115 1    
   120   60  116 1    
@<TRIPOS>SUBSTRUCTURE
     1 PHENYL      1 PERM              0 ****  ****    5  
     2 PHENYL     34 PERM              0 ****  ****    1  
     3 ISOPROPYL    40 PERM              0 ****  ****    1  
     4 ISOPROPYL    43 PERM              0 ****  ****    1  
     5 OH         46 PERM              0 ****  ****    1  
     6 PHENYL     50 PERM              0 ****  ****    1  
     7 ****       49 PERM              0 ****  ****    2 ROOT 
@<TRIPOS>NORMAL
@<TRIPOS>FF_PBC
FORCE_FIELD_SETUP_FEATURE Force Field Setup information
v1.0  0 0.000000 0.000000 0.000000 0.000000 0.000000 0.000000 NONE 0 0 0 0 1 0 0 0 0 0 0 0 0
