#	Name:			Sc48
#	Creating user name:	nsalim
#	Creation time:		Wed Feb  9 14:59:14 2005

#	Modifying user name:	nsalim
#	Modification time:	Wed Feb  9 14:59:24 2005

@<TRIPOS>MOLECULE
Sc48
  118   122     8     1     0
SMALL
GASTEIGER


@<TRIPOS>ATOM
      1 C1          5.395659   16.018996   11.787922 C.ar      1 PHENYL     -0.007549 
      2 C           4.159856   16.232234   12.412358 C.ar      1 PHENYL     -0.055387 
      3 C           2.966429   16.035746   11.710645 C.ar      1 PHENYL     -0.061400 
      4 C           2.997477   15.615282   10.378510 C.ar      1 PHENYL     -0.061739 
      5 C           4.225452   15.391646    9.750737 C.ar      1 PHENYL     -0.061400 
      6 C           5.416446   15.592733   10.453787 C.ar      1 PHENYL     -0.055387 
      7 O7          6.482139   16.942675   13.775339 O.3       8 <8>        -0.374923 
      8 C8          6.724351   16.240505   12.538442 C.3       8 <8>         0.163399 
      9 C9          7.597049   17.107522   11.638829 C.2       8 <8>         0.249630 
     10 N10         8.899038   16.810945   11.400787 N.am      8 <8>        -0.300876 
     11 C11         9.724556   17.655201   10.527687 C.3       8 <8>         0.104301 
     12 C12        10.601805   16.749962    9.681538 C.2       8 <8>         0.234178 
     13 N13        11.041928   17.182288    8.471902 N.am      8 <8>        -0.308071 
     14 C14        11.906926   16.393212    7.579560 C.3       8 <8>         0.054959 
     15 C15        10.998147   15.905515    6.410249 C.3       8 <8>         0.097537 
     16 C16        11.762654   15.223130    5.238115 C.3       8 <8>         0.112914 
     17 C17        10.966555   15.371057    3.958292 C.2       8 <8>         0.233214 
     18 N18        11.267564   16.361547    3.085425 N.am      8 <8>        -0.304046 
     19 C19        10.630090   16.369789    1.768883 C.3       8 <8>         0.084177 
     20 C20        11.231882   15.221575    0.987570 C.2       8 <8>         0.160624 
     21 C21        10.427968   14.596866   -0.125095 C.3       8 <8>         0.063722 
     22 C22        11.318712   14.105477   -1.235163 C.2       8 <8>         0.107254 
     23 N23        10.952154   14.015101   -2.446916 N.2       8 <8>        -0.234597 
     24 C24        11.957580   13.533727   -3.191373 C.ar      8 <8>         0.086723 
     25 C25        12.996378   13.333932   -2.295708 C.ar      8 <8>         0.057921 
     26 N26        12.551098   13.705498   -1.073018 N.pl3     8 <8>        -0.300855 
     27 C27        14.230208   12.833160   -2.705213 C.ar      8 <8>        -0.038435 
     28 C28        14.358479   12.541645   -4.071427 C.ar      8 <8>        -0.059877 
     29 O29         7.072559   18.086957   11.132233 O.2       8 <8>        -0.272268 
     30 O30        10.858530   15.653676   10.150490 O.2       8 <8>        -0.273751 
     31 O31        10.078776   14.562350    3.737524 O.2       8 <8>        -0.273988 
     32 O32        12.340234   14.791378    1.272138 O.2       8 <8>        -0.294979 
     33 C33        12.747967   15.268173    8.259317 C.3       8 <8>        -0.006715 
     34 C          13.956292   14.710191    7.478189 C.ar      2 PHENYL     -0.045529 
     35 C          14.154847   13.324672    7.404688 C.ar      2 PHENYL     -0.058512 
     36 C          15.233822   12.788020    6.696388 C.ar      2 PHENYL     -0.061501 
     37 C          16.103553   13.632700    6.003951 C.ar      2 PHENYL     -0.061742 
     38 C          15.929097   15.016154    6.086183 C.ar      2 PHENYL     -0.061501 
     39 C          14.890074   15.549216    6.855359 C.ar      2 PHENYL     -0.058512 
     40 C1         10.561134   18.681008   11.366163 C.3       3 ISOPROPYL   -0.010812 
     41 C2         11.536926   17.944677   12.332095 C.3       3 ISOPROPYL   -0.057917 
     42 C3          9.601029   19.571716   12.210656 C.3       3 ISOPROPYL   -0.057917 
     43 C1         10.764172   17.720382    0.997455 C.3       4 ISOPROPYL   -0.021342 
     44 C2         12.222170   18.021004    0.545433 C.3       4 ISOPROPYL   -0.060581 
     45 C3         10.193596   18.897581    1.837179 C.3       4 ISOPROPYL   -0.060581 
     46 O1         10.239979   17.032612    5.920672 O.3       5 OH         -0.387906 
     47 N47        12.027927   13.780208    5.475511 N.3       8 <8>        -0.299550 
     48 C48        13.299266   12.746292   -4.973939 C.ar      8 <8>        -0.059637 
     49 C49        12.851942   13.154974    4.408433 C.3       7 <7>         0.021999 
     50 C          13.342155   11.722189    4.672931 C.ar      6 PHENYL     -0.033401 
     51 C          14.399535   11.230272    3.896853 C.ar      6 PHENYL     -0.054912 
     52 C          14.906501    9.945855    4.111010 C.ar      6 PHENYL     -0.031394 
     53 C          14.339262    9.128173    5.090322 C.ar      6 PHENYL      0.075831 
     54 C          13.278983    9.605819    5.862717 C.ar      6 PHENYL     -0.031394 
     55 C          12.781179   10.895909    5.655143 C.ar      6 PHENYL     -0.054912 
     56 C56        12.061682   13.253091   -4.551110 C.ar      8 <8>        -0.034441 
     57 O57        14.828629    7.839406    5.299387 O.3       6 PHENYL     -0.347912 
     58 C58        11.397202   19.610037   10.434600 C.3       3 ISOPROPYL   -0.057917 
     59 C59        14.374814    6.879367    4.331675 C.3       6 PHENYL      0.043026 
     60 C60         7.281285   14.832165   12.885156 C.3       8 <8>        -0.023189 
     61 H1          4.112620   16.551238   13.448279 H         1 PHENYL      0.062131 
     62 H2          2.013629   16.210100   12.201498 H         1 PHENYL      0.061768 
     63 H3          2.070792   15.463305    9.833161 H         1 PHENYL      0.061758 
     64 H4          4.253955   15.062149    8.716617 H         1 PHENYL      0.061768 
     65 H5          6.361847   15.413935    9.950790 H         1 PHENYL      0.062131 
     66 H6          7.280756   17.131577   14.256077 H         8 <8>         0.211263 
     67 H7          9.351944   16.014303   11.799977 H         8 <8>         0.149567 
     68 H8          9.083412   18.210507    9.824126 H         8 <8>         0.059977 
     69 H9         10.729119   18.066669    8.117363 H         8 <8>         0.149127 
     70 H10        12.616317   17.119278    7.155560 H         8 <8>         0.052746 
     71 H11        10.252595   15.202702    6.814389 H         8 <8>         0.063235 
     72 H12        12.721484   15.747785    5.114561 H         8 <8>         0.058313 
     73 H13        11.998011   17.014465    3.275666 H         8 <8>         0.149445 
     74 H14         9.551121   16.176787    1.899937 H         8 <8>         0.057989 
     75 H15         9.700518   15.305361   -0.546805 H         8 <8>         0.041914 
     76 H16         9.881838   13.735507    0.285756 H         8 <8>         0.041914 
     77 H17        13.080294   13.680845   -0.186851 H         8 <8>         0.153326 
     78 H18        15.040647   12.680044   -2.000905 H         8 <8>         0.063671 
     79 H19        15.301019   12.147754   -4.439568 H         8 <8>         0.061817 
     80 H20        12.069461   14.438968    8.508708 H         8 <8>         0.033193 
     81 H21        13.177328   15.668286    9.191050 H         8 <8>         0.033193 
     82 H22        13.472684   12.645397    7.904794 H         2 PHENYL      0.062030 
     83 H23        15.396045   11.714258    6.681947 H         2 PHENYL      0.061766 
     84 H24        16.910502   13.215767    5.409077 H         2 PHENYL      0.061758 
     85 H25        16.606551   15.677938    5.554970 H         2 PHENYL      0.061766 
     86 H26        14.832501   16.625303    6.965804 H         2 PHENYL      0.062030 
     87 H27        12.235865   17.303818   11.773703 H         3 ISOPROPYL    0.023559 
     88 H28        10.987952   17.318045   13.050178 H         3 ISOPROPYL    0.023559 
     89 H29        12.130067   18.673070   12.906449 H         3 ISOPROPYL    0.023559 
     90 H30        10.165208   20.330410   12.774579 H         3 ISOPROPYL    0.023559 
     91 H31         9.037798   18.968704   12.937997 H         3 ISOPROPYL    0.023559 
     92 H32         8.883871   20.093132   11.558268 H         3 ISOPROPYL    0.023559 
     93 H33        10.154886   17.650912    0.078768 H         4 ISOPROPYL    0.031747 
     94 H34        12.249550   18.956708   -0.034693 H         4 ISOPROPYL    0.023301 
     95 H35        12.608220   17.215106   -0.097676 H         4 ISOPROPYL    0.023301 
     96 H36        12.898796   18.135428    1.403980 H         4 ISOPROPYL    0.023301 
     97 H37        10.787073   19.061062    2.748614 H         4 ISOPROPYL    0.023301 
     98 H38         9.153044   18.690011    2.131826 H         4 ISOPROPYL    0.023301 
     99 H39        10.205083   19.828186    1.248327 H         4 ISOPROPYL    0.023301 
    100 H40        10.776305   17.717713    5.534715 H         5 OH          0.209942 
    101 H41        11.081683   13.259289    5.557194 H         8 <8>         0.123028 
    102 H42        13.440882   12.506834   -6.023447 H         8 <8>         0.061824 
    103 H43        13.752038   13.772265    4.259218 H         7 <7>         0.047363 
    104 H44        12.301592   13.121280    3.454180 H         7 <7>         0.047363 
    105 H45        14.836804   11.848389    3.118773 H         6 PHENYL      0.062149 
    106 H46        15.740020    9.580463    3.520735 H         6 PHENYL      0.064336 
    107 H47        12.845585    8.966793    6.624728 H         6 PHENYL      0.064336 
    108 H48        11.958343   11.238245    6.270058 H         6 PHENYL      0.062149 
    109 H49        11.233760   13.418568   -5.231586 H         8 <8>         0.063930 
    110 H50        11.916331   20.383063   11.021909 H         3 ISOPROPYL    0.023559 
    111 H51        10.746428   20.117685    9.706153 H         3 ISOPROPYL    0.023559 
    112 H52        12.165486   19.041375    9.890042 H         3 ISOPROPYL    0.023559 
    113 H53        14.702761    7.150929    3.316307 H         6 PHENYL      0.052869 
    114 H54        13.276599    6.799983    4.350795 H         6 PHENYL      0.052869 
    115 H55        14.804387    5.900243    4.589707 H         6 PHENYL      0.052869 
    116 H56         7.529361   14.270679   11.971571 H         8 <8>         0.026542 
    117 H57         6.518607   14.268715   13.445060 H         8 <8>         0.026542 
    118 H58         8.177499   14.901716   13.519774 H         8 <8>         0.026542 
@<TRIPOS>BOND
     1    1    2 ar   
     2    1    6 ar   
     3    6    5 ar   
     4    5    4 ar   
     5    4    3 ar   
     6    3    2 ar   
     7    8    7 1    
     8    8   60 1    
     9    8    9 1    
    10    9   10 am   
    11   10   11 1    
    12   11   12 1    
    13   12   13 am   
    14   13   14 1    
    15   14   15 1    
    16   15   16 1    
    17   16   17 1    
    18   17   18 am   
    19   18   19 1    
    20   19   20 1    
    21   20   21 1    
    22   21   22 1    
    23   22   23 2    
    24   23   24 1    
    25   24   25 ar   
    26   25   26 1    
    27   22   26 1    
    28   25   27 ar   
    29   27   28 ar   
    30    9   29 2    
    31   12   30 2    
    32   17   31 2    
    33   20   32 2    
    34   14   33 1    
    35   34   35 ar   
    36   34   39 ar   
    37   39   38 ar   
    38   38   37 ar   
    39   37   36 ar   
    40   36   35 ar   
    41   33   34 1    
    42   40   41 1    
    43   40   42 1    
    44   11   40 1    
    45   43   44 1    
    46   43   45 1    
    47   19   43 1    
    48   16   47 1    
    49   15   46 1    
    50   47   49 1    
    51   28   48 ar   
    52   50   51 ar   
    53   50   55 ar   
    54   55   54 ar   
    55   54   53 ar   
    56   53   52 ar   
    57   52   51 ar   
    58   49   50 1    
    59   48   56 ar   
    60   24   56 ar   
    61   53   57 1    
    62   40   58 1    
    63   57   59 1    
    64    1    8 1    
    65    2   61 1    
    66    3   62 1    
    67    4   63 1    
    68    5   64 1    
    69    6   65 1    
    70    7   66 1    
    71   10   67 1    
    72   11   68 1    
    73   13   69 1    
    74   14   70 1    
    75   15   71 1    
    76   16   72 1    
    77   18   73 1    
    78   19   74 1    
    79   21   75 1    
    80   21   76 1    
    81   26   77 1    
    82   27   78 1    
    83   28   79 1    
    84   33   80 1    
    85   33   81 1    
    86   35   82 1    
    87   36   83 1    
    88   37   84 1    
    89   38   85 1    
    90   39   86 1    
    91   41   87 1    
    92   41   88 1    
    93   41   89 1    
    94   42   90 1    
    95   42   91 1    
    96   42   92 1    
    97   43   93 1    
    98   44   94 1    
    99   44   95 1    
   100   44   96 1    
   101   45   97 1    
   102   45   98 1    
   103   45   99 1    
   104   46  100 1    
   105   47  101 1    
   106   48  102 1    
   107   49  103 1    
   108   49  104 1    
   109   51  105 1    
   110   52  106 1    
   111   54  107 1    
   112   55  108 1    
   113   56  109 1    
   114   58  110 1    
   115   58  111 1    
   116   58  112 1    
   117   59  113 1    
   118   59  114 1    
   119   59  115 1    
   120   60  116 1    
   121   60  117 1    
   122   60  118 1    
@<TRIPOS>SUBSTRUCTURE
     1 PHENYL      1 PERM              0 ****  ****    1 ROOT 
     2 PHENYL     34 PERM              0 ****  ****    1  
     3 ISOPROPYL    40 PERM              0 ****  ****    1  
     4 ISOPROPYL    43 PERM              0 ****  ****    1  
     5 OH         46 PERM              0 ****  ****    1  
     6 PHENYL     50 PERM              0 ****  ****    1  
     7 ****       49 PERM              0 ****  ****    2  
     8 ****        8 PERM              0 ****  ****    6  
@<TRIPOS>NORMAL
@<TRIPOS>FF_PBC
FORCE_FIELD_SETUP_FEATURE Force Field Setup information
v1.0  0 0.000000 0.000000 0.000000 0.000000 0.000000 0.000000 NONE 0 0 0 0 1 0 0 0 0 0 0 0 0
