#	Name:			Sc6
#	Creating user name:	nsalim
#	Creation time:		Wed Feb  9 15:00:18 2005

#	Modifying user name:	nsalim
#	Modification time:	Wed Feb  9 15:00:27 2005

@<TRIPOS>MOLECULE
Sc6
  110   113     7     1     0
SMALL
GASTEIGER


@<TRIPOS>ATOM
      1 C1          8.512469   13.758246   14.811662 C.ar      1 PHENYL     -0.021282 
      2 C           8.033853   13.726971   16.127045 C.ar      1 PHENYL     -0.056372 
      3 C           8.514056   12.773507   17.030127 C.ar      1 PHENYL     -0.061429 
      4 C           9.474573   11.843341   16.622958 C.ar      1 PHENYL     -0.061740 
      5 C           9.952431   11.867086   15.309911 C.ar      1 PHENYL     -0.061429 
      6 C           9.469993   12.820383   14.408384 C.ar      1 PHENYL     -0.056372 
      7 C7          8.006680   14.799311   13.804854 C.3       1 PHENYL      0.083653 
      8 O8          9.143748   15.314214   13.083949 O.3       1 PHENYL     -0.295140 
      9 C9          8.830246   16.178914   12.109262 C.2       1 PHENYL      0.353139 
     10 N10         9.921739   16.596635   11.434792 N.am      1 PHENYL     -0.279805 
     11 C11         9.808154   17.510391   10.295395 C.3       1 PHENYL      0.103775 
     12 C12        10.800241   17.093714    9.230189 C.2       1 PHENYL      0.233986 
     13 N13        10.659044   17.552889    7.962701 N.am      1 PHENYL     -0.308078 
     14 C14        11.548114   17.093602    6.887504 C.3       1 PHENYL      0.054959 
     15 C15        11.230319   15.585315    6.637192 C.3       1 PHENYL      0.097536 
     16 C16        11.892216   14.935033    5.386540 C.3       1 PHENYL      0.112873 
     17 C17        11.130436   15.302153    4.126884 C.2       1 PHENYL      0.233263 
     18 N18        11.382470   16.449219    3.450961 N.am      1 PHENYL     -0.302393 
     19 C19        10.667982   16.744619    2.201567 C.3       1 PHENYL      0.101694 
     20 C20        11.481347   16.254432    1.022782 C.2       1 PHENYL      0.233871 
     21 N21        10.871693   16.099335   -0.175528 N.am      1 PHENYL     -0.309666 
     22 C22        11.635188   15.631748   -1.329539 C.3       1 PHENYL      0.036886 
     23 C          10.899033   15.996593   -2.626739 C.ar      2 PHENYL     -0.030323 
     24 C          10.445252   15.012729   -3.513157 C.ar      2 PHENYL     -0.057077 
     25 C           9.772730   15.376124   -4.683904 C.ar      2 PHENYL     -0.061452 
     26 C           9.550970   16.725116   -4.974917 C.ar      2 PHENYL     -0.061740 
     27 C          10.003468   17.710776   -4.093470 C.ar      2 PHENYL     -0.061452 
     28 C          10.675156   17.345568   -2.923225 C.ar      2 PHENYL     -0.057077 
     29 O29         7.686129   16.530531   11.868376 O.2       1 PHENYL     -0.241337 
     30 O30        11.700220   16.342831    9.569665 O.2       1 PHENYL     -0.273760 
     31 O31        10.284534   14.507687    3.748820 O.2       1 PHENYL     -0.273988 
     32 O32        12.668440   16.017742    1.181097 O.2       1 PHENYL     -0.273762 
     33 C33        13.029376   17.428585    7.249009 C.3       1 PHENYL     -0.006715 
     34 C          13.956484   17.642276    6.039370 C.ar      3 PHENYL     -0.045529 
     35 C          15.013162   16.762875    5.769930 C.ar      3 PHENYL     -0.058512 
     36 C          15.811096   16.934149    4.635415 C.ar      3 PHENYL     -0.061501 
     37 C          15.597884   18.025375    3.789959 C.ar      3 PHENYL     -0.061742 
     38 C          14.591001   18.946204    4.089456 C.ar      3 PHENYL     -0.061501 
     39 C          13.763133   18.744723    5.198136 C.ar      3 PHENYL     -0.058512 
     40 C1         10.044340   18.989295   10.722317 C.3       4 ISOPROPYL   -0.019657 
     41 C2         11.479702   19.205971   11.277183 C.3       4 ISOPROPYL   -0.060524 
     42 C3          8.992342   19.438363   11.772992 C.3       4 ISOPROPYL   -0.060524 
     43 C1         10.290927   18.248291    2.021451 C.3       5 ISOPROPYL   -0.019730 
     44 C2         11.524212   19.166300    1.797234 C.3       5 ISOPROPYL   -0.060525 
     45 C3          9.452734   18.753897    3.227047 C.3       5 ISOPROPYL   -0.060525 
     46 O1          9.803075   15.377911    6.628436 O.3       6 OH         -0.387906 
     47 N47        11.903516   13.458096    5.591808 N.3       1 PHENYL     -0.300793 
     48 C1         13.185348   12.764085    5.876215 C.3       7 CYCLOHEXYL    0.008379 
     49 C2         13.004155   11.224063    5.762073 C.3       7 CYCLOHEXYL   -0.037524 
     50 C3         14.312563   10.473091    6.122991 C.3       7 CYCLOHEXYL   -0.051648 
     51 C4         14.767924   10.836963    7.558446 C.3       7 CYCLOHEXYL   -0.052960 
     52 C5         14.969696   12.368265    7.675775 C.3       7 CYCLOHEXYL   -0.051648 
     53 C6         13.659187   13.112268    7.312899 C.3       7 CYCLOHEXYL   -0.037524 
     54 H1          7.286076   14.441602   16.455861 H         1 PHENYL      0.062101 
     55 H2          8.140450   12.754924   18.049677 H         1 PHENYL      0.061767 
     56 H3          9.848607   11.103978   17.324697 H         1 PHENYL      0.061758 
     57 H4         10.698078   11.145394   14.989994 H         1 PHENYL      0.061767 
     58 H5          9.843090   12.829923   13.388708 H         1 PHENYL      0.062101 
     59 H6          7.480527   15.619672   14.319859 H         1 PHENYL      0.061655 
     60 H7          7.304218   14.284460   13.129083 H         1 PHENYL      0.061655 
     61 H8         10.834069   16.271061   11.693527 H         1 PHENYL      0.151734 
     62 H9          8.810252   17.421312    9.833267 H         1 PHENYL      0.059775 
     63 H10         9.906489   18.171897    7.727929 H         1 PHENYL      0.149127 
     64 H11        11.288441   17.642011    5.970071 H         1 PHENYL      0.052746 
     65 H12        11.574912   15.023979    7.515364 H         1 PHENYL      0.063235 
     66 H13        12.923333   15.287805    5.270651 H         1 PHENYL      0.058313 
     67 H14        12.121042   17.058406    3.732574 H         1 PHENYL      0.149509 
     68 H15         9.711545   16.195944    2.176396 H         1 PHENYL      0.059702 
     69 H16         9.889893   16.262991   -0.290113 H         1 PHENYL      0.149075 
     70 H17        11.786974   14.544252   -1.244810 H         1 PHENYL      0.051152 
     71 H18        12.625548   16.113739   -1.370558 H         1 PHENYL      0.051152 
     72 H19        10.610554   13.961874   -3.298497 H         2 PHENYL      0.062079 
     73 H20         9.421727   14.609588   -5.368299 H         2 PHENYL      0.061767 
     74 H21         9.028219   17.006779   -5.883913 H         2 PHENYL      0.061758 
     75 H22         9.833167   18.759387   -4.317416 H         2 PHENYL      0.061767 
     76 H23        11.023803   18.114110   -2.240039 H         2 PHENYL      0.062079 
     77 H24        13.452336   16.668816    7.920778 H         1 PHENYL      0.033193 
     78 H25        13.035419   18.383757    7.797717 H         1 PHENYL      0.033193 
     79 H26        15.227877   15.937820    6.439264 H         3 PHENYL      0.062030 
     80 H27        16.598800   16.220659    4.412034 H         3 PHENYL      0.061766 
     81 H28        16.214134   18.158676    2.905937 H         3 PHENYL      0.061758 
     82 H29        14.455543   19.819486    3.458793 H         3 PHENYL      0.061766 
     83 H30        12.969156   19.455293    5.405357 H         3 PHENYL      0.062030 
     84 H31         9.924887   19.631559    9.831758 H         4 ISOPROPYL    0.031803 
     85 H32        11.644132   18.601362   12.181755 H         4 ISOPROPYL    0.023302 
     86 H33        11.628218   20.265376   11.538196 H         4 ISOPROPYL    0.023302 
     87 H34        12.236898   18.930676   10.527093 H         4 ISOPROPYL    0.023302 
     88 H35         9.117535   20.507181   12.007020 H         4 ISOPROPYL    0.023302 
     89 H36         9.104590   18.865526   12.706007 H         4 ISOPROPYL    0.023302 
     90 H37         7.972712   19.287179   11.385508 H         4 ISOPROPYL    0.023302 
     91 H38         9.661550   18.340024    1.117591 H         5 ISOPROPYL    0.031802 
     92 H39        12.128453   18.819927    0.944885 H         5 ISOPROPYL    0.023302 
     93 H40        12.157992   19.192315    2.691969 H         5 ISOPROPYL    0.023302 
     94 H41        11.195258   20.195727    1.585078 H         5 ISOPROPYL    0.023302 
     95 H42         9.116457   19.788169    3.054146 H         5 ISOPROPYL    0.023302 
     96 H43        10.051288   18.735046    4.148378 H         5 ISOPROPYL    0.023302 
     97 H44         8.563992   18.120570    3.373142 H         5 ISOPROPYL    0.023302 
     98 H45         9.352936   15.839292    5.928847 H         6 OH          0.209942 
     99 H46        11.346123   12.955135    4.809066 H         1 PHENYL      0.122975 
    100 H47        13.950496   13.076560    5.144385 H         7 CYCLOHEXYL    0.046044 
    101 H48        12.715448   10.954832    4.732453 H         7 CYCLOHEXYL    0.028023 
    102 H49        12.194337   10.904792    6.438088 H         7 CYCLOHEXYL    0.028023 
    103 H50        14.147509    9.384597    6.053644 H         7 CYCLOHEXYL    0.026577 
    104 H51        15.104364   10.744771    5.405345 H         7 CYCLOHEXYL    0.026577 
    105 H52        14.005838   10.506209    8.283711 H         7 CYCLOHEXYL    0.026530 
    106 H53        15.712323   10.317856    7.793863 H         7 CYCLOHEXYL    0.026530 
    107 H54        15.267956   12.622545    8.707083 H         7 CYCLOHEXYL    0.026577 
    108 H55        15.777166   12.690369    6.997466 H         7 CYCLOHEXYL    0.026577 
    109 H56        12.868268   12.836848    8.029100 H         7 CYCLOHEXYL    0.028023 
    110 H57        13.839095   14.191979    7.404179 H         7 CYCLOHEXYL    0.028023 
@<TRIPOS>BOND
     1    1    2 ar   
     2    1    6 ar   
     3    6    5 ar   
     4    5    4 ar   
     5    4    3 ar   
     6    3    2 ar   
     7    1    7 1    
     8    7    8 1    
     9    8    9 1    
    10    9   10 am   
    11   10   11 1    
    12   11   12 1    
    13   12   13 am   
    14   13   14 1    
    15   14   15 1    
    16   15   16 1    
    17   16   17 1    
    18   17   18 am   
    19   18   19 1    
    20   19   20 1    
    21   20   21 am   
    22   21   22 1    
    23   23   24 ar   
    24   23   28 ar   
    25   28   27 ar   
    26   27   26 ar   
    27   26   25 ar   
    28   25   24 ar   
    29   22   23 1    
    30    9   29 2    
    31   12   30 2    
    32   17   31 2    
    33   20   32 2    
    34   14   33 1    
    35   34   35 ar   
    36   34   39 ar   
    37   39   38 ar   
    38   38   37 ar   
    39   37   36 ar   
    40   36   35 ar   
    41   33   34 1    
    42   40   41 1    
    43   40   42 1    
    44   11   40 1    
    45   43   44 1    
    46   43   45 1    
    47   19   43 1    
    48   16   47 1    
    49   15   46 1    
    50   48   49 1    
    51   48   53 1    
    52   53   52 1    
    53   52   51 1    
    54   51   50 1    
    55   50   49 1    
    56   47   48 1    
    57    2   54 1    
    58    3   55 1    
    59    4   56 1    
    60    5   57 1    
    61    6   58 1    
    62    7   59 1    
    63    7   60 1    
    64   10   61 1    
    65   11   62 1    
    66   13   63 1    
    67   14   64 1    
    68   15   65 1    
    69   16   66 1    
    70   18   67 1    
    71   19   68 1    
    72   21   69 1    
    73   22   70 1    
    74   22   71 1    
    75   24   72 1    
    76   25   73 1    
    77   26   74 1    
    78   27   75 1    
    79   28   76 1    
    80   33   77 1    
    81   33   78 1    
    82   35   79 1    
    83   36   80 1    
    84   37   81 1    
    85   38   82 1    
    86   39   83 1    
    87   40   84 1    
    88   41   85 1    
    89   41   86 1    
    90   41   87 1    
    91   42   88 1    
    92   42   89 1    
    93   42   90 1    
    94   43   91 1    
    95   44   92 1    
    96   44   93 1    
    97   44   94 1    
    98   45   95 1    
    99   45   96 1    
   100   45   97 1    
   101   46   98 1    
   102   47   99 1    
   103   48  100 1    
   104   49  101 1    
   105   49  102 1    
   106   50  103 1    
   107   50  104 1    
   108   51  105 1    
   109   51  106 1    
   110   52  107 1    
   111   52  108 1    
   112   53  109 1    
   113   53  110 1    
@<TRIPOS>SUBSTRUCTURE
     1 PHENYL      1 PERM              0 ****  ****    6 ROOT 
     2 PHENYL     23 PERM              0 ****  ****    1  
     3 PHENYL     34 PERM              0 ****  ****    1  
     4 ISOPROPYL    40 PERM              0 ****  ****    1  
     5 ISOPROPYL    43 PERM              0 ****  ****    1  
     6 OH         46 PERM              0 ****  ****    1  
     7 CYCLOHEXYL    48 PERM              0 ****  ****    1  
@<TRIPOS>NORMAL
@<TRIPOS>FF_PBC
FORCE_FIELD_SETUP_FEATURE Force Field Setup information
v1.0  0 0.000000 0.000000 0.000000 0.000000 0.000000 0.000000 NONE 0 0 0 0 1 0 0 0 0 0 0 0 0
