#	Name:			Sc7
#	Creating user name:	nsalim
#	Creation time:		Wed Feb  9 15:00:42 2005

#	Modifying user name:	nsalim
#	Modification time:	Wed Feb  9 15:00:51 2005

@<TRIPOS>MOLECULE
Sc7
  113   117     7     1     0
SMALL
GASTEIGER


@<TRIPOS>ATOM
      1 C1          8.076308   14.210533   15.117678 C.ar      1 PHENYL     -0.021282 
      2 C           7.608850   14.330209   16.432001 C.ar      1 PHENYL     -0.056372 
      3 C           7.992001   13.401317   17.404245 C.ar      1 PHENYL     -0.061429 
      4 C           8.842681   12.344837   17.067374 C.ar      1 PHENYL     -0.061740 
      5 C           9.307452   12.217220   15.755439 C.ar      1 PHENYL     -0.061429 
      6 C           8.922275   13.146358   14.784578 C.ar      1 PHENYL     -0.056372 
      7 C7          7.678644   15.223839   14.037151 C.3       1 PHENYL      0.083653 
      8 O8          8.857616   15.549574   13.274826 O.3       1 PHENYL     -0.295140 
      9 C9          8.635308   16.389928   12.255521 C.2       1 PHENYL      0.353139 
     10 N10         9.761012   16.653254   11.560340 N.am      1 PHENYL     -0.279805 
     11 C11         9.740690   17.543478   10.397929 C.3       1 PHENYL      0.103775 
     12 C12        10.711478   17.031710    9.354968 C.2       1 PHENYL      0.233986 
     13 N13        10.660182   17.540872    8.100744 N.am      1 PHENYL     -0.308078 
     14 C14        11.584001   17.077931    7.060266 C.3       1 PHENYL      0.054959 
     15 C15        11.409749   15.543087    6.824119 C.3       1 PHENYL      0.097537 
     16 C16        11.836486   15.058561    5.404415 C.3       1 PHENYL      0.112915 
     17 C17        10.952360   15.677748    4.336064 C.2       1 PHENYL      0.233264 
     18 N18        11.521372   16.131391    3.193539 N.am      1 PHENYL     -0.302393 
     19 C19        10.705268   16.528886    2.041529 C.3       1 PHENYL      0.101694 
     20 C20        11.439727   16.103036    0.786057 C.2       1 PHENYL      0.233871 
     21 N21        10.787873   16.023926   -0.395512 N.am      1 PHENYL     -0.309666 
     22 C22        11.511308   15.569385   -1.580011 C.3       1 PHENYL      0.036886 
     23 C          10.732960   15.902978   -2.859492 C.ar      2 PHENYL     -0.030323 
     24 C          10.199260   14.895582   -3.671735 C.ar      2 PHENYL     -0.057077 
     25 C           9.517492   15.226745   -4.846363 C.ar      2 PHENYL     -0.061452 
     26 C           9.359553   16.566786   -5.210321 C.ar      2 PHENYL     -0.061740 
     27 C           9.877173   17.576240   -4.393889 C.ar      2 PHENYL     -0.061452 
     28 C          10.557779   17.243561   -3.219195 C.ar      2 PHENYL     -0.057077 
     29 O29         7.535105   16.852758   11.998012 O.2       1 PHENYL     -0.241337 
     30 O30        11.512651   16.176934    9.696901 O.2       1 PHENYL     -0.273760 
     31 O31         9.747640   15.729457    4.528593 O.2       1 PHENYL     -0.273988 
     32 O32        12.626778   15.833898    0.881297 O.2       1 PHENYL     -0.273762 
     33 C33        13.025001   17.525403    7.448080 C.3       1 PHENYL     -0.006715 
     34 C          14.023539   17.373150    6.292408 C.ar      3 PHENYL     -0.045529 
     35 C          14.981449   16.351498    6.298203 C.ar      3 PHENYL     -0.058512 
     36 C          15.848643   16.193242    5.213006 C.ar      3 PHENYL     -0.061501 
     37 C          15.779559   17.069666    4.126964 C.ar      3 PHENYL     -0.061742 
     38 C          14.853036   18.115967    4.135132 C.ar      3 PHENYL     -0.061501 
     39 C          13.979111   18.266252    5.215748 C.ar      3 PHENYL     -0.058512 
     40 C1         10.101218   19.006396   10.798531 C.3       4 ISOPROPYL   -0.019657 
     41 C2         11.545297   19.108029   11.364838 C.3       4 ISOPROPYL   -0.060524 
     42 C3          9.082745   19.577508   11.823171 C.3       4 ISOPROPYL   -0.060524 
     43 C1         10.392441   18.054226    1.997133 C.3       5 ISOPROPYL   -0.019730 
     44 C2         11.692864   18.900316    1.944550 C.3       5 ISOPROPYL   -0.060525 
     45 C3          9.517219   18.492649    3.202785 C.3       5 ISOPROPYL   -0.060525 
     46 O1         10.045020   15.161611    7.087051 O.3       6 OH         -0.387906 
     47 N47        11.774108   13.575112    5.271747 N.3       1 PHENYL     -0.299531 
     48 C1         12.792690   12.759638    5.982455 C.3       7 CYCLOHEXYL    0.022573 
     49 C49        12.410314   12.452786    7.439716 C.ar      7 CYCLOHEXYL   -0.025863 
     50 C50        13.367243   12.130988    8.417281 C.ar      7 CYCLOHEXYL   -0.013486 
     51 C51        12.993160   12.121925    9.770058 C.ar      7 CYCLOHEXYL   -0.017582 
     52 C52        11.653591   12.312880   10.128420 C.ar      7 CYCLOHEXYL   -0.054012 
     53 C53        10.679700   12.470487    9.140864 C.ar      7 CYCLOHEXYL   -0.060869 
     54 C54        11.058578   12.507304    7.797893 C.ar      7 CYCLOHEXYL   -0.056754 
     55 C55        14.691954   11.810877    8.084950 C.ar      7 CYCLOHEXYL   -0.053729 
     56 C56        15.653633   11.611121    9.079482 C.ar      7 CYCLOHEXYL   -0.061158 
     57 C57        15.288647   11.675850   10.424982 C.ar      7 CYCLOHEXYL   -0.061166 
     58 C58        13.956504   11.917856   10.766427 C.ar      7 CYCLOHEXYL   -0.054021 
     59 H1          6.945199   15.143963   16.706429 H         1 PHENYL      0.062101 
     60 H2          7.628444   13.500312   18.422620 H         1 PHENYL      0.061767 
     61 H3          9.141910   11.624500   17.822831 H         1 PHENYL      0.061758 
     62 H4          9.967576   11.396746   15.490191 H         1 PHENYL      0.061767 
     63 H5          9.283826   13.038245   13.766344 H         1 PHENYL      0.062101 
     64 H6          7.258070   16.134781   14.494049 H         1 PHENYL      0.061655 
     65 H7          6.912033   14.747148   13.404545 H         1 PHENYL      0.061655 
     66 H8         10.634120   16.238275   11.827142 H         1 PHENYL      0.151734 
     67 H9          8.745766   17.527256    9.921768 H         1 PHENYL      0.059775 
     68 H10         9.978044   18.234196    7.857979 H         1 PHENYL      0.149127 
     69 H11        11.322620   17.591482    6.121201 H         1 PHENYL      0.052746 
     70 H12        12.029381   15.025881    7.569016 H         1 PHENYL      0.063235 
     71 H13        12.870036   15.365627    5.213571 H         1 PHENYL      0.058313 
     72 H14        12.517168   16.149037    3.068898 H         1 PHENYL      0.149509 
     73 H15         9.756373   15.967227    2.041158 H         1 PHENYL      0.059702 
     74 H16         9.810004   16.225868   -0.473216 H         1 PHENYL      0.149075 
     75 H17        11.692339   14.485962   -1.496998 H         1 PHENYL      0.051152 
     76 H18        12.490531   16.070203   -1.655780 H         1 PHENYL      0.051152 
     77 H19        10.310570   13.851667   -3.396464 H         2 PHENYL      0.062079 
     78 H20         9.110540   14.442079   -5.476656 H         2 PHENYL      0.061767 
     79 H21         8.835544   16.823417   -6.125613 H         2 PHENYL      0.061758 
     80 H22         9.751273   18.618191   -4.671679 H         2 PHENYL      0.061767 
     81 H23        10.952650   18.030212   -2.583262 H         2 PHENYL      0.062079 
     82 H24        13.386725   16.977609    8.330404 H         1 PHENYL      0.033193 
     83 H25        12.994877   18.591953    7.723041 H         1 PHENYL      0.033193 
     84 H26        15.053033   15.670375    7.140607 H         3 PHENYL      0.062030 
     85 H27        16.576951   15.387828    5.213263 H         3 PHENYL      0.061766 
     86 H28        16.445279   16.940743    3.278793 H         3 PHENYL      0.061758 
     87 H29        14.815464   18.811627    3.302188 H         3 PHENYL      0.061766 
     88 H30        13.264295   19.083317    5.216707 H         3 PHENYL      0.062030 
     89 H31        10.049722   19.640229    9.895619 H         4 ISOPROPYL    0.031803 
     90 H32        11.645833   18.509145   12.282414 H         4 ISOPROPYL    0.023302 
     91 H33        11.783896   20.155355   11.607657 H         4 ISOPROPYL    0.023302 
     92 H34        12.284536   18.752968   10.630107 H         4 ISOPROPYL    0.023302 
     93 H35         9.299243   20.638239   12.025296 H         4 ISOPROPYL    0.023302 
     94 H36         9.136917   19.028444   12.775179 H         4 ISOPROPYL    0.023302 
     95 H37         8.056836   19.504929   11.429566 H         4 ISOPROPYL    0.023302 
     96 H38         9.814992   18.261461    1.078775 H         5 ISOPROPYL    0.031802 
     97 H39        12.306380   18.631591    1.071045 H         5 ISOPROPYL    0.023302 
     98 H40        12.284480   18.734672    2.854723 H         5 ISOPROPYL    0.023302 
     99 H41        11.451112   19.972547    1.877312 H         5 ISOPROPYL    0.023302 
    100 H42         9.236272   19.553297    3.108255 H         5 ISOPROPYL    0.023302 
    101 H43        10.068205   18.366792    4.144736 H         5 ISOPROPYL    0.023302 
    102 H44         8.593903   17.894834    3.250164 H         5 ISOPROPYL    0.023302 
    103 H45         9.433435   15.551161    6.468707 H         6 OH          0.209942 
    104 H46        11.745695   13.296018    4.223308 H         1 PHENYL      0.123028 
    105 H47        13.758735   13.285457    5.931652 H         7 CYCLOHEXYL    0.047381 
    106 H48        12.907209   11.776266    5.496511 H         7 CYCLOHEXYL    0.047381 
    107 H49        11.355396   12.335876   11.171994 H         7 CYCLOHEXYL    0.062362 
    108 H50         9.633408   12.567530    9.415017 H         7 CYCLOHEXYL    0.061785 
    109 H51        10.291130   12.587162    7.033937 H         7 CYCLOHEXYL    0.062088 
    110 H52        15.005340   11.699529    7.053063 H         7 CYCLOHEXYL    0.062371 
    111 H53        16.684833   11.403159    8.806748 H         7 CYCLOHEXYL    0.061776 
    112 H54        16.036258   11.535001   11.199350 H         7 CYCLOHEXYL    0.061776 
    113 H55        13.679438   11.944808   11.815470 H         7 CYCLOHEXYL    0.062362 
@<TRIPOS>BOND
     1    1    2 ar   
     2    1    6 ar   
     3    6    5 ar   
     4    5    4 ar   
     5    4    3 ar   
     6    3    2 ar   
     7    1    7 1    
     8    7    8 1    
     9    8    9 1    
    10    9   10 am   
    11   10   11 1    
    12   11   12 1    
    13   12   13 am   
    14   13   14 1    
    15   14   15 1    
    16   15   16 1    
    17   16   17 1    
    18   17   18 am   
    19   18   19 1    
    20   19   20 1    
    21   20   21 am   
    22   21   22 1    
    23   23   24 ar   
    24   23   28 ar   
    25   28   27 ar   
    26   27   26 ar   
    27   26   25 ar   
    28   25   24 ar   
    29   22   23 1    
    30    9   29 2    
    31   12   30 2    
    32   17   31 2    
    33   20   32 2    
    34   14   33 1    
    35   34   35 ar   
    36   34   39 ar   
    37   39   38 ar   
    38   38   37 ar   
    39   37   36 ar   
    40   36   35 ar   
    41   33   34 1    
    42   40   41 1    
    43   40   42 1    
    44   11   40 1    
    45   43   44 1    
    46   43   45 1    
    47   19   43 1    
    48   16   47 1    
    49   15   46 1    
    50   48   49 1    
    51   49   50 ar   
    52   50   51 ar   
    53   51   52 ar   
    54   52   53 ar   
    55   53   54 ar   
    56   47   48 1    
    57   49   54 ar   
    58   50   55 ar   
    59   55   56 ar   
    60   56   57 ar   
    61   57   58 ar   
    62   51   58 ar   
    63    2   59 1    
    64    3   60 1    
    65    4   61 1    
    66    5   62 1    
    67    6   63 1    
    68    7   64 1    
    69    7   65 1    
    70   10   66 1    
    71   11   67 1    
    72   13   68 1    
    73   14   69 1    
    74   15   70 1    
    75   16   71 1    
    76   18   72 1    
    77   19   73 1    
    78   21   74 1    
    79   22   75 1    
    80   22   76 1    
    81   24   77 1    
    82   25   78 1    
    83   26   79 1    
    84   27   80 1    
    85   28   81 1    
    86   33   82 1    
    87   33   83 1    
    88   35   84 1    
    89   36   85 1    
    90   37   86 1    
    91   38   87 1    
    92   39   88 1    
    93   40   89 1    
    94   41   90 1    
    95   41   91 1    
    96   41   92 1    
    97   42   93 1    
    98   42   94 1    
    99   42   95 1    
   100   43   96 1    
   101   44   97 1    
   102   44   98 1    
   103   44   99 1    
   104   45  100 1    
   105   45  101 1    
   106   45  102 1    
   107   46  103 1    
   108   47  104 1    
   109   48  105 1    
   110   48  106 1    
   111   52  107 1    
   112   53  108 1    
   113   54  109 1    
   114   55  110 1    
   115   56  111 1    
   116   57  112 1    
   117   58  113 1    
@<TRIPOS>SUBSTRUCTURE
     1 PHENYL      1 PERM              0 ****  ****    6 ROOT 
     2 PHENYL     23 PERM              0 ****  ****    1  
     3 PHENYL     34 PERM              0 ****  ****    1  
     4 ISOPROPYL    40 PERM              0 ****  ****    1  
     5 ISOPROPYL    43 PERM              0 ****  ****    1  
     6 OH         46 PERM              0 ****  ****    1  
     7 CYCLOHEXYL    48 PERM              0 ****  ****    1  
@<TRIPOS>NORMAL
@<TRIPOS>FF_PBC
FORCE_FIELD_SETUP_FEATURE Force Field Setup information
v1.0  0 0.000000 0.000000 0.000000 0.000000 0.000000 0.000000 NONE 0 0 0 0 1 0 0 0 0 0 0 0 0
