#	Name:			Sc8
#	Creating user name:	nsalim
#	Creation time:		Wed Feb  9 15:01:07 2005

#	Modifying user name:	nsalim
#	Modification time:	Wed Feb  9 15:01:18 2005

@<TRIPOS>MOLECULE
Sc8
  114   118     8     1     0
SMALL
GASTEIGER


@<TRIPOS>ATOM
      1 C1          7.944506   13.741145   14.652585 C.ar      1 PHENYL     -0.021282 
      2 C           7.476517   13.711389   15.971769 C.ar      1 PHENYL     -0.056372 
      3 C           7.823797   12.654622   16.818791 C.ar      1 PHENYL     -0.061429 
      4 C           8.639816   11.620803   16.350681 C.ar      1 PHENYL     -0.061740 
      5 C           9.108481   11.645109   15.034274 C.ar      1 PHENYL     -0.061429 
      6 C           8.760174   12.702468   14.189045 C.ar      1 PHENYL     -0.056372 
      7 C7          7.580209   14.889473   13.703972 C.3       1 PHENYL      0.083653 
      8 O8          8.781587   15.296124   13.020992 O.3       1 PHENYL     -0.295140 
      9 C9          8.589586   16.236318   12.086474 C.2       1 PHENYL      0.353139 
     10 N10         9.735407   16.549722   11.447878 N.am      1 PHENYL     -0.279805 
     11 C11         9.748587   17.516630   10.347918 C.3       1 PHENYL      0.103775 
     12 C12        10.726627   17.048620    9.293635 C.2       1 PHENYL      0.233986 
     13 N13        10.647822   17.555092    8.039583 N.am      1 PHENYL     -0.308078 
     14 C14        11.562230   17.098152    6.988379 C.3       1 PHENYL      0.054969 
     15 C15        11.418756   15.555055    6.798229 C.3       1 PHENYL      0.097833 
     16 C16        11.859742   15.022183    5.400330 C.3       1 PHENYL      0.116544 
     17 C17        10.961633   15.578298    4.312829 C.2       1 PHENYL      0.233570 
     18 N18        11.500120   16.236831    3.257886 N.am      1 PHENYL     -0.302385 
     19 C19        10.682777   16.594507    2.091390 C.3       1 PHENYL      0.101695 
     20 C20        11.428572   16.162683    0.846808 C.2       1 PHENYL      0.233871 
     21 N21        10.768894   16.073346   -0.329976 N.am      1 PHENYL     -0.309666 
     22 C22        11.472934   15.627292   -1.528447 C.3       1 PHENYL      0.036886 
     23 C          10.796994   16.214252   -2.773881 C.ar      2 PHENYL     -0.030323 
     24 C          10.224162   15.391954   -3.750925 C.ar      2 PHENYL     -0.057077 
     25 C           9.624221   15.956508   -4.880385 C.ar      2 PHENYL     -0.061452 
     26 C           9.592132   17.345204   -5.036117 C.ar      2 PHENYL     -0.061740 
     27 C          10.156337   18.169612   -4.058759 C.ar      2 PHENYL     -0.061452 
     28 C          10.753979   17.603944   -2.929059 C.ar      2 PHENYL     -0.057077 
     29 O29         7.500403   16.733911   11.847632 O.2       1 PHENYL     -0.241337 
     30 O30        11.558986   16.222429    9.631285 O.2       1 PHENYL     -0.273760 
     31 O31         9.758224   15.402783    4.421031 O.2       1 PHENYL     -0.273977 
     32 O32        12.617915   15.904918    0.944869 O.2       1 PHENYL     -0.273762 
     33 C33        12.998790   17.587072    7.340982 C.3       1 PHENYL     -0.006715 
     34 C          13.983086   17.461986    6.169093 C.ar      3 PHENYL     -0.045529 
     35 C          14.970196   16.468896    6.159649 C.ar      3 PHENYL     -0.058512 
     36 C          15.833255   16.341711    5.066887 C.ar      3 PHENYL     -0.061501 
     37 C          15.734427   17.226559    3.989218 C.ar      3 PHENYL     -0.061742 
     38 C          14.777789   18.244412    4.011880 C.ar      3 PHENYL     -0.061501 
     39 C          13.901366   18.356607    5.095525 C.ar      3 PHENYL     -0.058512 
     40 C1         10.134567   18.945011   10.832938 C.3       4 ISOPROPYL   -0.019657 
     41 C2         11.575577   18.983465   11.413935 C.3       4 ISOPROPYL   -0.060524 
     42 C3          9.119106   19.467592   11.884186 C.3       4 ISOPROPYL   -0.060524 
     43 C1         10.319513   18.107954    2.011723 C.3       5 ISOPROPYL   -0.019730 
     44 C2         11.577521   19.003664    1.854867 C.3       5 ISOPROPYL   -0.060525 
     45 C3          9.494147   18.551653    3.249250 C.3       5 ISOPROPYL   -0.060525 
     46 O1         10.069706   15.130618    7.073801 O.3       6 OH         -0.387896 
     47 N47        11.778210   13.540528    5.373761 N.3       1 PHENYL     -0.274678 
     48 C          12.205449   12.804840    6.502472 C.ar      7 PHENYL      0.016307 
     49 C          11.265964   12.115358    7.271262 C.ar      7 PHENYL     -0.043317 
     50 C          11.649770   11.523044    8.477826 C.ar      7 PHENYL     -0.052554 
     51 C          12.972442   11.630513    8.921101 C.ar      7 PHENYL     -0.017787 
     52 C          13.932426   12.227188    8.095079 C.ar      7 PHENYL     -0.052554 
     53 C          13.553376   12.793750    6.874480 C.ar      7 PHENYL     -0.043317 
     54 C          13.345157   11.121527   10.264924 C.ar      8 PHENYL     -0.017882 
     55 C          12.615561   11.530541   11.387698 C.ar      8 PHENYL     -0.054030 
     56 C          12.956095   11.059715   12.659009 C.ar      8 PHENYL     -0.061184 
     57 C          14.037497   10.187717   12.813771 C.ar      8 PHENYL     -0.061723 
     58 C          14.770144    9.779529   11.695714 C.ar      8 PHENYL     -0.061184 
     59 C          14.419192   10.238315   10.422242 C.ar      8 PHENYL     -0.054030 
     60 H1          6.840372   14.506829   16.347198 H         1 PHENYL      0.062101 
     61 H2          7.459107   12.636709   17.841526 H         1 PHENYL      0.061767 
     62 H3          8.908912   10.800221   17.008662 H         1 PHENYL      0.061758 
     63 H4          9.742433   10.843421   14.667735 H         1 PHENYL      0.061767 
     64 H5          9.126096   12.714631   13.166827 H         1 PHENYL      0.062101 
     65 H6          7.153274   15.738992   14.261375 H         1 PHENYL      0.061655 
     66 H7          6.828242   14.502312   12.996932 H         1 PHENYL      0.061655 
     67 H8         10.598167   16.106835   11.704213 H         1 PHENYL      0.151734 
     68 H9          8.760134   17.552062    9.859614 H         1 PHENYL      0.059775 
     69 H10         9.952920   18.238725    7.805335 H         1 PHENYL      0.149127 
     70 H11        11.271026   17.578872    6.042251 H         1 PHENYL      0.052747 
     71 H12        12.040738   15.076120    7.569040 H         1 PHENYL      0.063245 
     72 H13        12.905838   15.292102    5.211366 H         1 PHENYL      0.058628 
     73 H14        12.482460   16.433447    3.204338 H         1 PHENYL      0.149509 
     74 H15         9.743230   16.018143    2.083952 H         1 PHENYL      0.059702 
     75 H16         9.786747   16.260810   -0.398699 H         1 PHENYL      0.149075 
     76 H17        11.479735   14.526291   -1.552067 H         1 PHENYL      0.051152 
     77 H18        12.518745   15.975344   -1.539126 H         1 PHENYL      0.051152 
     78 H19        10.241134   14.312445   -3.639295 H         2 PHENYL      0.062079 
     79 H20         9.182508   15.315496   -5.637156 H         2 PHENYL      0.061767 
     80 H21         9.129506   17.782776   -5.915363 H         2 PHENYL      0.061758 
     81 H22        10.130396   19.248428   -4.176379 H         2 PHENYL      0.061767 
     82 H23        11.186792   18.246482   -2.168265 H         2 PHENYL      0.062079 
     83 H24        13.392730   17.056851    8.220444 H         1 PHENYL      0.033193 
     84 H25        12.942683   18.654145    7.609851 H         1 PHENYL      0.033193 
     85 H26        15.069097   15.785994    6.998048 H         3 PHENYL      0.062030 
     86 H27        16.582005   15.555183    5.054260 H         3 PHENYL      0.061766 
     87 H28        16.400943   17.125491    3.137720 H         3 PHENYL      0.061758 
     88 H29        14.719307   18.948601    3.186917 H         3 PHENYL      0.061766 
     89 H30        13.156624   19.146309    5.102941 H         3 PHENYL      0.062030 
     90 H31        10.099198   19.631813    9.968067 H         4 ISOPROPYL    0.031803 
     91 H32        11.662770   18.321975   12.289327 H         4 ISOPROPYL    0.023302 
     92 H33        11.825647   20.008916   11.727594 H         4 ISOPROPYL    0.023302 
     93 H34        12.313909   18.669039   10.659986 H         4 ISOPROPYL    0.023302 
     94 H35         9.356522   20.507597   12.158295 H         4 ISOPROPYL    0.023302 
     95 H36         9.153739   18.852072   12.795826 H         4 ISOPROPYL    0.023302 
     96 H37         8.096488   19.442415   11.476151 H         4 ISOPROPYL    0.023302 
     97 H38         9.689342   18.267185    1.118578 H         5 ISOPROPYL    0.031802 
     98 H39        12.156185   18.720264    0.962445 H         5 ISOPROPYL    0.023302 
     99 H40        12.220882   18.907952    2.738715 H         5 ISOPROPYL    0.023302 
    100 H41        11.284884   20.060499    1.751939 H         5 ISOPROPYL    0.023302 
    101 H42         9.173709   19.600094    3.143091 H         5 ISOPROPYL    0.023302 
    102 H43        10.098886   18.467103    4.161459 H         5 ISOPROPYL    0.023302 
    103 H44         8.597000   17.923820    3.362049 H         5 ISOPROPYL    0.023302 
    104 H45         9.442854   15.475150    6.444243 H         6 OH          0.209942 
    105 H46        12.206729   13.131804    4.467230 H         1 PHENYL      0.128529 
    106 H47        10.237887   12.053223    6.930654 H         7 PHENYL      0.063333 
    107 H48        10.917140   10.984806    9.071414 H         7 PHENYL      0.062410 
    108 H49        14.972459   12.258916    8.404438 H         7 PHENYL      0.062410 
    109 H50        14.299763   13.233734    6.222137 H         7 PHENYL      0.063333 
    110 H51        11.783180   12.218436   11.274124 H         8 PHENYL      0.062362 
    111 H52        12.381557   11.373548   13.525677 H         8 PHENYL      0.061776 
    112 H53        14.308460    9.828451   13.802554 H         8 PHENYL      0.061759 
    113 H54        15.612974    9.105540   11.816078 H         8 PHENYL      0.061776 
    114 H55        14.981368    9.905729    9.555427 H         8 PHENYL      0.062362 
@<TRIPOS>BOND
     1    1    2 ar   
     2    1    6 ar   
     3    6    5 ar   
     4    5    4 ar   
     5    4    3 ar   
     6    3    2 ar   
     7    1    7 1    
     8    7    8 1    
     9    8    9 1    
    10    9   10 am   
    11   10   11 1    
    12   11   12 1    
    13   12   13 am   
    14   13   14 1    
    15   14   15 1    
    16   15   16 1    
    17   16   17 1    
    18   17   18 am   
    19   18   19 1    
    20   19   20 1    
    21   20   21 am   
    22   21   22 1    
    23   23   24 ar   
    24   23   28 ar   
    25   28   27 ar   
    26   27   26 ar   
    27   26   25 ar   
    28   25   24 ar   
    29   22   23 1    
    30    9   29 2    
    31   12   30 2    
    32   17   31 2    
    33   20   32 2    
    34   14   33 1    
    35   34   35 ar   
    36   34   39 ar   
    37   39   38 ar   
    38   38   37 ar   
    39   37   36 ar   
    40   36   35 ar   
    41   33   34 1    
    42   40   41 1    
    43   40   42 1    
    44   11   40 1    
    45   43   44 1    
    46   43   45 1    
    47   19   43 1    
    48   16   47 1    
    49   15   46 1    
    50   48   49 ar   
    51   48   53 ar   
    52   53   52 ar   
    53   52   51 ar   
    54   51   50 ar   
    55   50   49 ar   
    56   47   48 1    
    57   54   55 ar   
    58   54   59 ar   
    59   59   58 ar   
    60   58   57 ar   
    61   57   56 ar   
    62   56   55 ar   
    63   51   54 1    
    64    2   60 1    
    65    3   61 1    
    66    4   62 1    
    67    5   63 1    
    68    6   64 1    
    69    7   65 1    
    70    7   66 1    
    71   10   67 1    
    72   11   68 1    
    73   13   69 1    
    74   14   70 1    
    75   15   71 1    
    76   16   72 1    
    77   18   73 1    
    78   19   74 1    
    79   21   75 1    
    80   22   76 1    
    81   22   77 1    
    82   24   78 1    
    83   25   79 1    
    84   26   80 1    
    85   27   81 1    
    86   28   82 1    
    87   33   83 1    
    88   33   84 1    
    89   35   85 1    
    90   36   86 1    
    91   37   87 1    
    92   38   88 1    
    93   39   89 1    
    94   40   90 1    
    95   41   91 1    
    96   41   92 1    
    97   41   93 1    
    98   42   94 1    
    99   42   95 1    
   100   42   96 1    
   101   43   97 1    
   102   44   98 1    
   103   44   99 1    
   104   44  100 1    
   105   45  101 1    
   106   45  102 1    
   107   45  103 1    
   108   46  104 1    
   109   47  105 1    
   110   49  106 1    
   111   50  107 1    
   112   52  108 1    
   113   53  109 1    
   114   55  110 1    
   115   56  111 1    
   116   57  112 1    
   117   58  113 1    
   118   59  114 1    
@<TRIPOS>SUBSTRUCTURE
     1 PHENYL      1 PERM              0 ****  ****    6 ROOT 
     2 PHENYL     23 PERM              0 ****  ****    1  
     3 PHENYL     34 PERM              0 ****  ****    1  
     4 ISOPROPYL    40 PERM              0 ****  ****    1  
     5 ISOPROPYL    43 PERM              0 ****  ****    1  
     6 OH         46 PERM              0 ****  ****    1  
     7 PHENYL     48 PERM              0 ****  ****    2  
     8 PHENYL     54 PERM              0 ****  ****    1  
@<TRIPOS>NORMAL
@<TRIPOS>FF_PBC
FORCE_FIELD_SETUP_FEATURE Force Field Setup information
v1.0  0 0.000000 0.000000 0.000000 0.000000 0.000000 0.000000 NONE 0 0 0 0 1 0 0 0 0 0 0 0 0
