#	Name:			Sc9
#	Creating user name:	nsalim
#	Creation time:		Wed Feb  9 15:01:33 2005

#	Modifying user name:	nsalim
#	Modification time:	Wed Feb  9 15:01:42 2005

@<TRIPOS>MOLECULE
Sc9
  114   118     7     1     0
SMALL
GASTEIGER


@<TRIPOS>ATOM
      1 C1          7.829696   14.059449   14.983154 C.ar      1 PHENYL     -0.021282 
      2 C           7.412440   14.171599   16.314891 C.ar      1 PHENYL     -0.056372 
      3 C           7.722152   13.168572   17.238345 C.ar      1 PHENYL     -0.061429 
      4 C           8.449045   12.044981   16.835244 C.ar      1 PHENYL     -0.061740 
      5 C           8.864238   11.925703   15.506235 C.ar      1 PHENYL     -0.061429 
      6 C           8.553134   12.929703   14.584633 C.ar      1 PHENYL     -0.056372 
      7 C7          7.509745   15.149930   13.953017 C.3       1 PHENYL      0.083653 
      8 O8          8.709504   15.418996   13.200989 O.3       1 PHENYL     -0.295140 
      9 C9          8.553652   16.325888   12.226224 C.2       1 PHENYL      0.353139 
     10 N10         9.697680   16.538610   11.543147 N.am      1 PHENYL     -0.279805 
     11 C11         9.753178   17.492178   10.432567 C.3       1 PHENYL      0.103775 
     12 C12        10.693725   16.969575    9.367397 C.2       1 PHENYL      0.233986 
     13 N13        10.700058   17.545429    8.140249 N.am      1 PHENYL     -0.308078 
     14 C14        11.617235   17.079817    7.093510 C.3       1 PHENYL      0.054958 
     15 C15        11.401666   15.560329    6.799324 C.3       1 PHENYL      0.097529 
     16 C16        11.826217   15.094858    5.371141 C.3       1 PHENYL      0.112683 
     17 C17        10.967862   15.725720    4.288524 C.2       1 PHENYL      0.233256 
     18 N18        11.523004   15.979499    3.078540 N.am      1 PHENYL     -0.302393 
     19 C19        10.720892   16.488362    1.959629 C.3       1 PHENYL      0.101694 
     20 C20        11.317351   15.984006    0.659699 C.2       1 PHENYL      0.233871 
     21 N21        10.610987   16.078195   -0.490287 N.am      1 PHENYL     -0.309666 
     22 C22        11.202756   15.612757   -1.742280 C.3       1 PHENYL      0.036886 
     23 C          10.463854   16.214113   -2.946131 C.ar      2 PHENYL     -0.030323 
     24 C           9.826647   15.402372   -3.891799 C.ar      2 PHENYL     -0.057077 
     25 C           9.166226   15.976435   -4.982084 C.ar      2 PHENYL     -0.061452 
     26 C           9.137402   17.365835   -5.131469 C.ar      2 PHENYL     -0.061740 
     27 C           9.769153   18.180533   -4.187974 C.ar      2 PHENYL     -0.061452 
     28 C          10.429349   17.604709   -3.098521 C.ar      2 PHENYL     -0.057077 
     29 O29         7.492928   16.885020   11.995326 O.2       1 PHENYL     -0.241337 
     30 O30        11.424497   16.041117    9.672872 O.2       1 PHENYL     -0.273760 
     31 O31         9.798082   15.974237    4.533848 O.2       1 PHENYL     -0.273988 
     32 O32        12.440423   15.505541    0.689127 O.2       1 PHENYL     -0.273762 
     33 C33        13.061846   17.475400    7.520811 C.3       1 PHENYL     -0.006715 
     34 C          14.117243   17.100974    6.473610 C.ar      3 PHENYL     -0.045529 
     35 C          15.008186   16.045198    6.702377 C.ar      3 PHENYL     -0.058512 
     36 C          15.949171   15.692672    5.731580 C.ar      3 PHENYL     -0.061501 
     37 C          15.990621   16.380457    4.515601 C.ar      3 PHENYL     -0.061742 
     38 C          15.115438   17.445974    4.289114 C.ar      3 PHENYL     -0.061501 
     39 C          14.192662   17.815115    5.272587 C.ar      3 PHENYL     -0.058512 
     40 C1         10.224527   18.895083   10.922154 C.3       4 ISOPROPYL   -0.019657 
     41 C2         11.667223   18.849071   11.499641 C.3       4 ISOPROPYL   -0.060524 
     42 C3          9.247362   19.482760   11.977240 C.3       4 ISOPROPYL   -0.060524 
     43 C1         10.649880   18.046087    1.917503 C.3       5 ISOPROPYL   -0.019730 
     44 C2         12.066525   18.674514    1.816052 C.3       5 ISOPROPYL   -0.060525 
     45 C3          9.891662   18.630750    3.140121 C.3       5 ISOPROPYL   -0.060525 
     46 O1         10.024803   15.202985    7.032559 O.3       6 OH         -0.387906 
     47 N47        11.731113   13.611511    5.343834 N.3       1 PHENYL     -0.303253 
     48 C1         12.930651   12.836206    5.737890 C.3       7 CYCLOHEXYL    0.000686 
     49 C49        15.201832   12.073084    4.911090 C.2       7 CYCLOHEXYL   -0.023497 
     50 C50        16.337058   12.605497    4.426773 C.2       7 CYCLOHEXYL   -0.002388 
     51 N51        17.365879   12.059731    5.020998 N.pl3     7 CYCLOHEXYL   -0.319787 
     52 C52        16.984828   11.138757    5.927010 C.ar      7 CYCLOHEXYL    0.038451 
     53 C53        15.606210   11.034251    5.928823 C.ar      7 CYCLOHEXYL    0.000505 
     54 C54        17.783971   10.368663    6.771197 C.ar      7 CYCLOHEXYL   -0.039969 
     55 C55        17.129799    9.473358    7.627436 C.ar      7 CYCLOHEXYL   -0.059972 
     56 C56        15.731592    9.349654    7.613586 C.ar      7 CYCLOHEXYL   -0.061079 
     57 C57        14.943349   10.119520    6.747772 C.ar      7 CYCLOHEXYL   -0.052522 
     58 C58        13.799907   12.456876    4.509166 C.3       7 CYCLOHEXYL   -0.013289 
     59 H1          6.844826   15.037078   16.641241 H         1 PHENYL      0.062101 
     60 H2          7.397848   13.261938   18.270467 H         1 PHENYL      0.061767 
     61 H3          8.690765   11.266649   17.552764 H         1 PHENYL      0.061758 
     62 H4          9.428395   11.053692   15.189752 H         1 PHENYL      0.061767 
     63 H5          8.876423   12.829124   13.553312 H         1 PHENYL      0.062101 
     64 H6          7.160727   16.068174   14.453173 H         1 PHENYL      0.061655 
     65 H7          6.708178   14.764812   13.301813 H         1 PHENYL      0.061655 
     66 H8         10.534591   16.042433   11.785864 H         1 PHENYL      0.151734 
     67 H9          8.763816   17.581060    9.953715 H         1 PHENYL      0.059775 
     68 H10        10.076393   18.300597    7.927066 H         1 PHENYL      0.149127 
     69 H11        11.386667   17.621653    6.162722 H         1 PHENYL      0.052746 
     70 H12        11.983987   14.983203    7.532559 H         1 PHENYL      0.063235 
     71 H13        12.866769   15.375989    5.173337 H         1 PHENYL      0.058306 
     72 H14        12.493343   15.798489    2.897728 H         1 PHENYL      0.149509 
     73 H15         9.700166   16.074172    2.010786 H         1 PHENYL      0.059702 
     74 H16         9.673621   16.431677   -0.504651 H         1 PHENYL      0.149075 
     75 H17        11.179031   14.511898   -1.764338 H         1 PHENYL      0.051152 
     76 H18        12.254584   15.933243   -1.821800 H         1 PHENYL      0.051152 
     77 H19         9.840537   14.322315   -3.786493 H         2 PHENYL      0.062079 
     78 H20         8.674930   15.342451   -5.713884 H         2 PHENYL      0.061767 
     79 H21         8.624890   17.811156   -5.978684 H         2 PHENYL      0.061758 
     80 H22         9.747035   19.260178   -4.301131 H         2 PHENYL      0.061767 
     81 H23        10.917928   18.241193   -2.367097 H         2 PHENYL      0.062079 
     82 H24        13.322855   17.011903    8.482467 H         1 PHENYL      0.033193 
     83 H25        13.098773   18.566072    7.671547 H         1 PHENYL      0.033193 
     84 H26        14.975717   15.488821    7.633820 H         3 PHENYL      0.062030 
     85 H27        16.648630   14.885501    5.925441 H         3 PHENYL      0.061766 
     86 H28        16.703388   16.090159    3.749724 H         3 PHENYL      0.061758 
     87 H29        15.155673   17.987843    3.349179 H         3 PHENYL      0.061766 
     88 H30        13.532888   18.659084    5.100630 H         3 PHENYL      0.062030 
     89 H31        10.230545   19.583078   10.058491 H         4 ISOPROPYL    0.031803 
     90 H32        11.713804   18.189292   12.378949 H         4 ISOPROPYL    0.023302 
     91 H33        11.985096   19.857321   11.808071 H         4 ISOPROPYL    0.023302 
     92 H34        12.383595   18.483505   10.747932 H         4 ISOPROPYL    0.023302 
     93 H35         9.544049   20.509702   12.242580 H         4 ISOPROPYL    0.023302 
     94 H36         9.252566   18.876516   12.895521 H         4 ISOPROPYL    0.023302 
     95 H37         8.221509   19.513490   11.578364 H         4 ISOPROPYL    0.023302 
     96 H38        10.082798   18.345759    1.018407 H         5 ISOPROPYL    0.031802 
     97 H39        12.591359   18.325273    0.913545 H         5 ISOPROPYL    0.023302 
     98 H40        12.664308   18.402406    2.696890 H         5 ISOPROPYL    0.023302 
     99 H41        11.996600   19.772533    1.768168 H         5 ISOPROPYL    0.023302 
    100 H42         9.756580   19.717628    3.023452 H         5 ISOPROPYL    0.023302 
    101 H43        10.458268   18.456365    4.064389 H         5 ISOPROPYL    0.023302 
    102 H44         8.896580   18.169362    3.237948 H         5 ISOPROPYL    0.023302 
    103 H45         9.432874   15.640597    6.427423 H         6 OH          0.209942 
    104 H46        11.305701   13.241503    4.417877 H         1 PHENYL      0.122724 
    105 H47        12.571712   11.929711    6.246685 H         7 CYCLOHEXYL    0.042736 
    106 H48        13.541631   13.399840    6.461152 H         7 CYCLOHEXYL    0.042736 
    107 H49        16.390132   13.378591    3.659143 H         7 CYCLOHEXYL    0.078413 
    108 H50        18.347881   12.304388    4.822370 H         7 CYCLOHEXYL    0.151632 
    109 H51        18.864594   10.463715    6.761832 H         7 CYCLOHEXYL    0.063622 
    110 H52        17.714749    8.865852    8.311337 H         7 CYCLOHEXYL    0.061816 
    111 H53        15.251268    8.644145    8.284757 H         7 CYCLOHEXYL    0.061777 
    112 H54        13.867430   10.000934    6.716301 H         7 CYCLOHEXYL    0.062411 
    113 H55        13.852234   13.326522    3.834981 H         7 CYCLOHEXYL    0.032607 
    114 H56        13.335566   11.623927    3.957722 H         7 CYCLOHEXYL    0.032607 
@<TRIPOS>BOND
     1    1    2 ar   
     2    1    6 ar   
     3    6    5 ar   
     4    5    4 ar   
     5    4    3 ar   
     6    3    2 ar   
     7    1    7 1    
     8    7    8 1    
     9    8    9 1    
    10    9   10 am   
    11   10   11 1    
    12   11   12 1    
    13   12   13 am   
    14   13   14 1    
    15   14   15 1    
    16   15   16 1    
    17   16   17 1    
    18   17   18 am   
    19   18   19 1    
    20   19   20 1    
    21   20   21 am   
    22   21   22 1    
    23   23   24 ar   
    24   23   28 ar   
    25   28   27 ar   
    26   27   26 ar   
    27   26   25 ar   
    28   25   24 ar   
    29   22   23 1    
    30    9   29 2    
    31   12   30 2    
    32   17   31 2    
    33   20   32 2    
    34   14   33 1    
    35   34   35 ar   
    36   34   39 ar   
    37   39   38 ar   
    38   38   37 ar   
    39   37   36 ar   
    40   36   35 ar   
    41   33   34 1    
    42   40   41 1    
    43   40   42 1    
    44   11   40 1    
    45   43   44 1    
    46   43   45 1    
    47   19   43 1    
    48   16   47 1    
    49   15   46 1    
    50   48   58 1    
    51   49   50 2    
    52   50   51 1    
    53   52   51 1    
    54   53   52 ar   
    55   49   53 1    
    56   47   48 1    
    57   52   54 ar   
    58   54   55 ar   
    59   56   55 ar   
    60   57   56 ar   
    61   53   57 ar   
    62   58   49 1    
    63    2   59 1    
    64    3   60 1    
    65    4   61 1    
    66    5   62 1    
    67    6   63 1    
    68    7   64 1    
    69    7   65 1    
    70   10   66 1    
    71   11   67 1    
    72   13   68 1    
    73   14   69 1    
    74   15   70 1    
    75   16   71 1    
    76   18   72 1    
    77   19   73 1    
    78   21   74 1    
    79   22   75 1    
    80   22   76 1    
    81   24   77 1    
    82   25   78 1    
    83   26   79 1    
    84   27   80 1    
    85   28   81 1    
    86   33   82 1    
    87   33   83 1    
    88   35   84 1    
    89   36   85 1    
    90   37   86 1    
    91   38   87 1    
    92   39   88 1    
    93   40   89 1    
    94   41   90 1    
    95   41   91 1    
    96   41   92 1    
    97   42   93 1    
    98   42   94 1    
    99   42   95 1    
   100   43   96 1    
   101   44   97 1    
   102   44   98 1    
   103   44   99 1    
   104   45  100 1    
   105   45  101 1    
   106   45  102 1    
   107   46  103 1    
   108   47  104 1    
   109   48  105 1    
   110   48  106 1    
   111   50  107 1    
   112   51  108 1    
   113   54  109 1    
   114   55  110 1    
   115   56  111 1    
   116   57  112 1    
   117   58  113 1    
   118   58  114 1    
@<TRIPOS>SUBSTRUCTURE
     1 PHENYL      1 PERM              0 ****  ****    6 ROOT 
     2 PHENYL     23 PERM              0 ****  ****    1  
     3 PHENYL     34 PERM              0 ****  ****    1  
     4 ISOPROPYL    40 PERM              0 ****  ****    1  
     5 ISOPROPYL    43 PERM              0 ****  ****    1  
     6 OH         46 PERM              0 ****  ****    1  
     7 CYCLOHEXYL    48 PERM              0 ****  ****    1  
@<TRIPOS>NORMAL
@<TRIPOS>FF_PBC
FORCE_FIELD_SETUP_FEATURE Force Field Setup information
v1.0  0 0.000000 0.000000 0.000000 0.000000 0.000000 0.000000 NONE 0 0 0 0 1 0 0 0 0 0 0 0 0
