#	Name:			T01
#	Creating user name:	ccollar
#	Creation time:		Fri Jul 29 21:47:59 2005

#	Modifying user name:	ccollar
#	Modification time:	Fri Jul 29 21:50:58 2005

@<TRIPOS>MOLECULE
T01
   50    52     2     1     1
SMALL
GASTEIGER


@<TRIPOS>ATOM
      1 C1          6.764640    2.282308   15.290430 C.3       2 PHENYL      0.028865 
      2 C2          8.063871    2.516224   16.107889 C.3       2 PHENYL      0.109890 
      3 O3          8.554422    1.265293   16.639491 O.3       2 PHENYL     -0.299219 
      4 C4          8.637402    0.244597   15.773039 C.2       2 PHENYL      0.303513 
      5 C5          7.925527    0.256590   14.480361 C.2       2 PHENYL      0.109810 
      6 C6          7.022801    1.222106   14.261050 C.2       2 PHENYL      0.072466 
      7 S7          8.299260   -1.022317   13.290576 S.3       2 PHENYL     -0.081346 
      8 O8          6.292783    1.322206   13.138947 O.3       2 PHENYL     -0.362708 
      9 O9          9.303165   -0.727963   16.086584 O.2       2 PHENYL     -0.258537 
     10 C           9.849775   -0.337231   12.776577 C.ar      2 PHENYL      0.012977 
     11 C          11.040424   -0.791991   13.350050 C.ar      2 PHENYL     -0.047980 
     12 C          12.264300   -0.259895   12.933838 C.ar      2 PHENYL     -0.060709 
     13 C          12.296904    0.728233   11.945297 C.ar      2 PHENYL     -0.061692 
     14 C          11.104717    1.195032   11.383921 C.ar      2 PHENYL     -0.060709 
     15 C           9.880716    0.668013   11.805940 C.ar      2 PHENYL     -0.047980 
     16 C           7.738369    3.459855   17.290219 C.ar      1 PHENYL     -0.014883 
     17 C           7.901076    3.039374   18.618028 C.ar      1 PHENYL     -0.055818 
     18 C           7.618028    3.897810   19.684528 C.ar      1 PHENYL     -0.061411 
     19 C           7.162295    5.194708   19.439076 C.ar      1 PHENYL     -0.061739 
     20 C           6.989780    5.624929   18.121874 C.ar      1 PHENYL     -0.061411 
     21 C           7.274164    4.762434   17.059102 C.ar      1 PHENYL     -0.055818 
     22 C22         9.200428    3.135141   15.233764 C.3       2 PHENYL     -0.018338 
     23 C23        10.501451    3.358255   16.057682 C.3       2 PHENYL     -0.047757 
     24 C24        11.622742    4.109174   15.277001 C.3       2 PHENYL     -0.046621 
     25 C25        12.089105    3.329257   14.016600 C.3       2 PHENYL     -0.062664 
     26 C26        12.838120    4.359509   16.214408 C.3       2 PHENYL     -0.062664 
     27 H1          6.444867    3.206235   14.786296 H         2 PHENYL      0.036464 
     28 H2          5.952833    1.939233   15.949922 H         2 PHENYL      0.036464 
     29 H3          6.424873    0.655052   12.475141 H         2 PHENYL      0.216929 
     30 H4         11.014278   -1.559027   14.117355 H         2 PHENYL      0.062862 
     31 H5         13.189359   -0.613962   13.378563 H         2 PHENYL      0.061791 
     32 H6         13.248027    1.135097   11.615528 H         2 PHENYL      0.061759 
     33 H7         11.129587    1.967541   10.621357 H         2 PHENYL      0.061791 
     34 H8          8.954472    1.038422   11.379032 H         2 PHENYL      0.062862 
     35 H9          8.251055    2.038790   18.847211 H         1 PHENYL      0.062120 
     36 H10         7.752530    3.556657   20.706715 H         1 PHENYL      0.061768 
     37 H11         6.943546    5.863322   20.266188 H         1 PHENYL      0.061758 
     38 H12         6.633948    6.631830   17.924644 H         1 PHENYL      0.061768 
     39 H13         7.126069    5.129428   16.050292 H         1 PHENYL      0.062120 
     40 H14         8.877569    4.094105   14.802554 H         2 PHENYL      0.029663 
     41 H15         9.420937    2.457705   14.396929 H         2 PHENYL      0.029663 
     42 H16        10.884834    2.383930   16.401697 H         2 PHENYL      0.026876 
     43 H17        10.258579    3.957899   16.949283 H         2 PHENYL      0.026876 
     44 H18        11.235986    5.092467   14.955164 H         2 PHENYL      0.029550 
     45 H19        12.955688    3.825133   13.552835 H         2 PHENYL      0.023233 
     46 H20        11.293545    3.284530   13.259358 H         2 PHENYL      0.023233 
     47 H21        12.380507    2.305218   14.294152 H         2 PHENYL      0.023233 
     48 H22        13.265665    3.402479   16.551134 H         2 PHENYL      0.023233 
     49 H23        12.534067    4.938342   17.100511 H         2 PHENYL      0.023233 
     50 H24        13.622574    4.927429   15.690193 H         2 PHENYL      0.023233 
@<TRIPOS>BOND
     1    1    2 1    
     2    3    2 1    
     3    4    3 1    
     4    5    4 1    
     5    5    6 2    
     6    6    1 1    
     7    7    5 1    
     8    6    8 1    
     9    4    9 2    
    10   10   11 ar   
    11   10   15 ar   
    12   15   14 ar   
    13   14   13 ar   
    14   13   12 ar   
    15   12   11 ar   
    16   10    7 1    
    17   16   17 ar   
    18   16   21 ar   
    19   21   20 ar   
    20   20   19 ar   
    21   19   18 ar   
    22   18   17 ar   
    23    2   16 1    
    24    2   22 1    
    25   22   23 1    
    26   23   24 1    
    27   24   25 1    
    28   24   26 1    
    29    1   27 1    
    30    1   28 1    
    31    8   29 1    
    32   11   30 1    
    33   12   31 1    
    34   13   32 1    
    35   14   33 1    
    36   15   34 1    
    37   17   35 1    
    38   18   36 1    
    39   19   37 1    
    40   20   38 1    
    41   21   39 1    
    42   22   40 1    
    43   22   41 1    
    44   23   42 1    
    45   23   43 1    
    46   24   44 1    
    47   25   45 1    
    48   25   46 1    
    49   25   47 1    
    50   26   48 1    
    51   26   49 1    
    52   26   50 1    
@<TRIPOS>SUBSTRUCTURE
     1 PHENYL     16 PERM              0 ****  ****    1  
     2 PHENYL     10 PERM              0 ****  ****    1 ROOT 
@<TRIPOS>SET
ATOM$CYAN       STATIC     ATOMS    COLORGROUP SYSTEM 
50 1 2 3 4 5 6 7 8 9 10 11 12 13 14 15 16 17 18 19 \
 20 21 22 23 24 25 26 27 28 29 30 31 32 33 34 35 36 37 \
 38 39 40 41 42 43 44 45 46 47 48 49 50
@<TRIPOS>NORMAL
@<TRIPOS>FF_PBC
FORCE_FIELD_SETUP_FEATURE Force Field Setup information
v1.0  0 0.000000 0.000000 0.000000 0.000000 0.000000 0.000000 NONE 0 0 0 0 1 0 0 0 0 0 0 0 0
