#	Name:			T02
#	Creating user name:	ccollar
#	Creation time:		Fri Jul 29 21:47:59 2005

#	Modifying user name:	ccollar
#	Modification time:	Fri Jul 29 21:54:04 2005

@<TRIPOS>MOLECULE
T02
   45    48     3     1     1
SMALL
GASTEIGER


@<TRIPOS>ATOM
      1 C1          6.784009    1.942491   15.365545 C.3       2 PHENYL      0.033082 
      2 C2          8.048827    2.371280   16.154250 C.3       1 PHENYL      0.134804 
      3 O3          8.565895    1.240595   16.887675 O.3       2 PHENYL     -0.294425 
      4 C4          8.795913    0.157593   16.132270 C.2       2 PHENYL      0.303825 
      5 C5          8.205056    0.022218   14.787949 C.2       2 PHENYL      0.109832 
      6 C6          7.226315    0.853429   14.419508 C.2       2 PHENYL      0.072802 
      7 S7          8.792704   -1.238590   13.679815 S.3       2 PHENYL     -0.081346 
      8 O8          6.640617    0.730415   13.220425 O.3       2 PHENYL     -0.362697 
      9 O9          9.491637   -0.736473   16.583937 O.2       2 PHENYL     -0.258526 
     10 C           9.977069   -0.166936   12.915290 C.ar      2 PHENYL      0.012977 
     11 C          11.195647    0.092676   13.548826 C.ar      2 PHENYL     -0.047980 
     12 C          12.136896    0.925979   12.937811 C.ar      2 PHENYL     -0.060709 
     13 C          11.856812    1.503015   11.695562 C.ar      2 PHENYL     -0.061692 
     14 C          10.628067    1.262359   11.073541 C.ar      2 PHENYL     -0.060709 
     15 C           9.685335    0.432414   11.687139 C.ar      2 PHENYL     -0.047980 
     16 C           7.657010    3.486602   17.138932 C.ar      1 PHENYL     -0.010471 
     17 C           7.389017    3.195512   18.482205 C.ar      1 PHENYL     -0.055489 
     18 C           7.058088    4.216717   19.377749 C.ar      1 PHENYL     -0.061401 
     19 C           6.981041    5.539409   18.934207 C.ar      1 PHENYL     -0.061739 
     20 C           7.230187    5.835926   17.591796 C.ar      1 PHENYL     -0.061401 
     21 C           7.560725    4.812607   16.698731 C.ar      1 PHENYL     -0.055489 
     22 C           9.223668    2.881289   15.287229 C.ar      3 PHENYL     -0.010471 
     23 C           9.106641    3.221480   13.931868 C.ar      3 PHENYL     -0.055489 
     24 C          10.212848    3.688874   13.216365 C.ar      3 PHENYL     -0.061401 
     25 C          11.455802    3.810818   13.841359 C.ar      3 PHENYL     -0.061739 
     26 C          11.587397    3.462781   15.187164 C.ar      3 PHENYL     -0.061401 
     27 C          10.474940    3.011831   15.902721 C.ar      3 PHENYL     -0.055489 
     28 H1          6.030216    1.532533   16.055150 H         2 PHENYL      0.036809 
     29 H2          6.345991    2.815263   14.857960 H         2 PHENYL      0.036809 
     30 H3          5.936231    1.344092   13.043247 H         2 PHENYL      0.216929 
     31 H4         11.410751   -0.352828   14.514740 H         2 PHENYL      0.062862 
     32 H5         13.084425    1.125721   13.428717 H         2 PHENYL      0.061791 
     33 H6         12.592616    2.140639   11.215293 H         2 PHENYL      0.061759 
     34 H7         10.405646    1.720360   10.114693 H         2 PHENYL      0.061791 
     35 H8          8.726479    0.252005   11.211925 H         2 PHENYL      0.062862 
     36 H9          7.433548    2.173214   18.843219 H         1 PHENYL      0.062130 
     37 H10         6.860391    3.982305   20.419462 H         1 PHENYL      0.061768 
     38 H11         6.727946    6.333688   19.629969 H         1 PHENYL      0.061758 
     39 H12         7.166671    6.862222   17.242700 H         1 PHENYL      0.061768 
     40 H13         7.740555    5.060118   15.657698 H         1 PHENYL      0.062130 
     41 H14         8.164934    3.137504   13.404936 H         3 PHENYL      0.062130 
     42 H15        10.107272    3.958575   12.169829 H         3 PHENYL      0.061768 
     43 H16        12.314563    4.172330   13.284135 H         3 PHENYL      0.061758 
     44 H17        12.553074    3.543820   15.676763 H         3 PHENYL      0.061768 
     45 H18        10.590869    2.762876   16.953113 H         3 PHENYL      0.062130 
@<TRIPOS>BOND
     1   22   23 ar   
     2   16    2 1    
     3    4    3 1    
     4    5    4 1    
     5    5    6 2    
     6    6    1 1    
     7    7    5 1    
     8    6    8 1    
     9    4    9 2    
    10   10   11 ar   
    11   10   15 ar   
    12   15   14 ar   
    13   14   13 ar   
    14   12   13 ar   
    15   11   12 ar   
    16   10    7 1    
    17   16   17 ar   
    18   16   21 ar   
    19   21   20 ar   
    20   20   19 ar   
    21   19   18 ar   
    22   18   17 ar   
    23    3    2 1    
    24    1    2 1    
    25   22   27 ar   
    26   27   26 ar   
    27   26   25 ar   
    28   25   24 ar   
    29   24   23 ar   
    30    2   22 1    
    31    1   28 1    
    32    1   29 1    
    33    8   30 1    
    34   11   31 1    
    35   12   32 1    
    36   13   33 1    
    37   14   34 1    
    38   15   35 1    
    39   17   36 1    
    40   18   37 1    
    41   19   38 1    
    42   20   39 1    
    43   21   40 1    
    44   23   41 1    
    45   24   42 1    
    46   25   43 1    
    47   26   44 1    
    48   27   45 1    
@<TRIPOS>SUBSTRUCTURE
     1 PHENYL     16 PERM              0 ****  ****    3  
     2 PHENYL     10 PERM              0 ****  ****    2 ROOT 
     3 PHENYL     22 PERM              0 ****  ****    1  
@<TRIPOS>SET
ATOM$CYAN       STATIC     ATOMS    COLORGROUP SYSTEM 
45 1 2 3 4 5 6 7 8 9 10 11 12 13 14 15 16 17 18 19 \
 20 21 22 23 24 25 26 27 28 29 30 31 32 33 34 35 36 37 \
 38 39 40 41 42 43 44 45
@<TRIPOS>NORMAL
@<TRIPOS>FF_PBC
FORCE_FIELD_SETUP_FEATURE Force Field Setup information
v1.0  0 0.000000 0.000000 0.000000 0.000000 0.000000 0.000000 NONE 0 0 0 0 1 0 0 0 0 0 0 0 0
