#	Name:			T03
#	Creating user name:	ccollar
#	Creation time:		Fri Jul 29 21:47:59 2005

#	Modifying user name:	ccollar
#	Modification time:	Fri Jul 29 21:56:40 2005

@<TRIPOS>MOLECULE
T03
   51    54     4     1     1
SMALL
GASTEIGER


@<TRIPOS>ATOM
      1 C1          6.823053    2.201597   15.889575 C.3       2 PHENYL      0.028875 
      2 C2          8.247958    2.582057   16.380499 C.3       1 PHENYL      0.110177 
      3 O3          8.844458    1.472700   17.089952 O.3       2 PHENYL     -0.299209 
      4 C4          8.797654    0.290092   16.459658 C.2       2 PHENYL      0.303513 
      5 C5          7.888463    0.058033   15.323016 C.2       2 PHENYL      0.109810 
      6 C6          6.929520    0.948316   15.057434 C.2       2 PHENYL      0.072466 
      7 S7          8.082465   -1.393712   14.312365 S.3       2 PHENYL     -0.081346 
      8 O8          6.064283    0.737880   14.055434 O.3       2 PHENYL     -0.362708 
      9 O9          9.515096   -0.613113   16.855859 O.2       2 PHENYL     -0.258537 
     10 C           9.331283   -0.619756   13.323196 C.ar      2 PHENYL      0.012977 
     11 C          10.682456   -0.843132   13.601642 C.ar      2 PHENYL     -0.047980 
     12 C          11.666907   -0.210011   12.837197 C.ar      2 PHENYL     -0.060709 
     13 C          11.299629    0.657073   11.803742 C.ar      2 PHENYL     -0.061692 
     14 C           9.948087    0.884365   11.528825 C.ar      2 PHENYL     -0.060709 
     15 C           8.964153    0.236458   12.281145 C.ar      2 PHENYL     -0.047980 
     16 C           8.140422    3.786483   17.344592 C.ar      1 PHENYL     -0.014873 
     17 C           8.494411    3.664512   18.695750 C.ar      1 PHENYL     -0.055818 
     18 C           8.416005    4.759567   19.561282 C.ar      1 PHENYL     -0.061411 
     19 C           7.973527    5.996834   19.088628 C.ar      1 PHENYL     -0.061739 
     20 C           7.606868    6.129691   17.747784 C.ar      1 PHENYL     -0.061411 
     21 C           7.687323    5.031608   16.886424 C.ar      1 PHENYL     -0.055818 
     22 C           9.198343    2.941732   15.194221 C.3       3 PHENYL     -0.014588 
     23 C23        10.587060    3.416387   15.698273 C.3       3 PHENYL     -0.024728 
     24 C          11.547218    3.554211   14.508017 C.ar      4 PHENYL     -0.047254 
     25 C          11.437590    4.652092   13.647512 C.ar      4 PHENYL     -0.058571 
     26 C          12.300450    4.783079   12.555504 C.ar      4 PHENYL     -0.061501 
     27 C          13.288341    3.821674   12.325674 C.ar      4 PHENYL     -0.061742 
     28 C          13.409154    2.728812   13.188185 C.ar      4 PHENYL     -0.061501 
     29 C          12.533899    2.590408   14.269296 C.ar      4 PHENYL     -0.058571 
     30 H1          6.162382    2.004787   16.747780 H         2 PHENYL      0.036464 
     31 H2          6.402677    3.030626   15.301718 H         2 PHENYL      0.036464 
     32 H3          5.392299    1.401275   13.943275 H         2 PHENYL      0.216929 
     33 H4         10.965451   -1.506503   14.412676 H         2 PHENYL      0.062862 
     34 H5         12.716491   -0.391715   13.046720 H         2 PHENYL      0.061791 
     35 H6         12.063038    1.153656   11.212841 H         2 PHENYL      0.061759 
     36 H7          9.662964    1.563225   10.730951 H         2 PHENYL      0.061791 
     37 H8          7.914641    0.400233   12.059001 H         2 PHENYL      0.062862 
     38 H9          8.836921    2.717657   19.098794 H         1 PHENYL      0.062120 
     39 H10         8.699514    4.649207   20.603783 H         1 PHENYL      0.061768 
     40 H11         7.914627    6.849065   19.758908 H         1 PHENYL      0.061758 
     41 H12         7.258832    7.088611   17.375301 H         1 PHENYL      0.061768 
     42 H13         7.389844    5.169761   15.853612 H         1 PHENYL      0.062120 
     43 H14         8.758451    3.723275   14.557223 H         3 PHENYL      0.029969 
     44 H15         9.366219    2.066232   14.549656 H         3 PHENYL      0.029969 
     45 H16        10.990409    2.694138   16.425368 H         3 PHENYL      0.031417 
     46 H17        10.505895    4.390093   16.206878 H         3 PHENYL      0.031417 
     47 H18        10.679406    5.408181   13.824883 H         4 PHENYL      0.062029 
     48 H19        12.203857    5.632364   11.885983 H         4 PHENYL      0.061766 
     49 H20        13.960657    3.923627   11.479287 H         4 PHENYL      0.061758 
     50 H21        14.182506    1.986242   13.017083 H         4 PHENYL      0.061766 
     51 H22        12.625928    1.727761   14.921415 H         4 PHENYL      0.062029 
@<TRIPOS>BOND
     1   22   23 1    
     2   16    2 1    
     3    4    3 1    
     4    5    4 1    
     5    5    6 2    
     6    6    1 1    
     7    7    5 1    
     8    6    8 1    
     9    4    9 2    
    10   10   11 ar   
    11   10   15 ar   
    12   15   14 ar   
    13   14   13 ar   
    14   12   13 ar   
    15   11   12 ar   
    16   10    7 1    
    17   16   17 ar   
    18   16   21 ar   
    19   21   20 ar   
    20   20   19 ar   
    21   19   18 ar   
    22   18   17 ar   
    23    3    2 1    
    24    1    2 1    
    25   24   25 ar   
    26   24   29 ar   
    27   29   28 ar   
    28   28   27 ar   
    29   27   26 ar   
    30    2   22 1    
    31   26   25 ar   
    32   23   24 1    
    33    1   30 1    
    34    1   31 1    
    35    8   32 1    
    36   11   33 1    
    37   12   34 1    
    38   13   35 1    
    39   14   36 1    
    40   15   37 1    
    41   17   38 1    
    42   18   39 1    
    43   19   40 1    
    44   20   41 1    
    45   21   42 1    
    46   22   43 1    
    47   22   44 1    
    48   23   45 1    
    49   23   46 1    
    50   25   47 1    
    51   26   48 1    
    52   27   49 1    
    53   28   50 1    
    54   29   51 1    
@<TRIPOS>SUBSTRUCTURE
     1 PHENYL     16 PERM              0 ****  ****    3  
     2 PHENYL     10 PERM              0 ****  ****    2 ROOT 
     3 PHENYL     22 PERM              0 ****  ****    2  
     4 PHENYL     24 PERM              0 ****  ****    1  
@<TRIPOS>SET
ATOM$CYAN       STATIC     ATOMS    COLORGROUP SYSTEM 
51 1 2 3 4 5 6 7 8 9 10 11 12 13 14 15 16 17 18 19 \
 20 21 22 23 24 25 26 27 28 29 30 31 32 33 34 35 36 37 \
 38 39 40 41 42 43 44 45 46 47 48 49 50 51
@<TRIPOS>NORMAL
@<TRIPOS>FF_PBC
FORCE_FIELD_SETUP_FEATURE Force Field Setup information
v1.0  0 0.000000 0.000000 0.000000 0.000000 0.000000 0.000000 NONE 0 0 0 0 1 0 0 0 0 0 0 0 0
