#	Name:			T04
#	Creating user name:	ccollar
#	Creation time:		Fri Jul 29 21:47:59 2005

#	Modifying user name:	ccollar
#	Modification time:	Fri Jul 29 22:00:26 2005

@<TRIPOS>MOLECULE
T04
   38    40     3     1     1
SMALL
GASTEIGER


@<TRIPOS>ATOM
      1 C1          6.601961    2.091566   16.098896 C.3       2 PHENYL      0.026005 
      2 C2          8.028583    2.573618   16.446204 C.3       1 PHENYL      0.099170 
      3 O3          8.831897    1.513768   17.001585 O.3       2 PHENYL     -0.302553 
      4 C4          8.818591    0.370225   16.298277 C.2       2 PHENYL      0.302927 
      5 C5          7.819988    0.117729   15.237001 C.2       2 PHENYL      0.105393 
      6 C6          6.757729    0.933041   15.157058 C.2       2 PHENYL      0.071862 
      7 S7          8.068626   -1.269654   14.130208 S.3       2 PHENYL     -0.112562 
      8 O8          5.771308    0.791016   14.258177 O.3       2 PHENYL     -0.362728 
      9 O9          9.645408   -0.485358   16.566466 O.2       2 PHENYL     -0.258558 
     10 C           9.556628   -0.612954   13.312681 C.3       2 PHENYL      0.023660 
     11 C           9.929989   -1.615184   12.214707 C.ar      3 PHENYL     -0.037218 
     12 C           9.591092   -1.374647   10.878111 C.ar      3 PHENYL     -0.057776 
     13 C           9.949219   -2.290095    9.883948 C.ar      3 PHENYL     -0.061476 
     14 C          10.643384   -3.455054   10.222204 C.ar      3 PHENYL     -0.061741 
     15 C          10.975954   -3.704147   11.556602 C.ar      3 PHENYL     -0.061476 
     16 C           7.941690    3.734898   17.446703 C.ar      1 PHENYL     -0.017911 
     17 C           7.914797    3.476134   18.821835 C.ar      1 PHENYL     -0.056090 
     18 C           7.844478    4.529071   19.738696 C.ar      1 PHENYL     -0.061420 
     19 C           7.795169    5.849739   19.284344 C.ar      1 PHENYL     -0.061740 
     20 C           7.814536    6.114065   17.912181 C.ar      1 PHENYL     -0.061420 
     21 C           7.884990    5.059480   16.997088 C.ar      1 PHENYL     -0.056090 
     22 H1          6.063998    1.763852   17.001574 H         2 PHENYL      0.036177 
     23 H2          6.039904    2.909449   15.620045 H         2 PHENYL      0.036177 
     24 H3          8.532935    2.924301   15.528554 H         1 PHENYL      0.065638 
     25 H4          5.839884    0.061809   13.652330 H         2 PHENYL      0.216929 
     26 H5         10.383532   -0.518414   14.032546 H         2 PHENYL      0.042841 
     27 H6          9.339445    0.381646   12.894072 H         2 PHENYL      0.042841 
     28 H7          9.046738   -0.476458   10.604636 H         3 PHENYL      0.062054 
     29 H8          9.687820   -2.096460    8.847985 H         3 PHENYL      0.061767 
     30 C          10.617278   -2.787376   12.549146 C.ar      3 PHENYL     -0.057776 
     31 H9         10.923325   -4.165272    9.450082 H         3 PHENYL      0.061758 
     32 H10        11.512619   -4.609912   11.822237 H         3 PHENYL      0.061767 
     33 H11         7.947171    2.453742   19.184847 H         1 PHENYL      0.062111 
     34 H12         7.828074    4.320958   20.804289 H         1 PHENYL      0.061767 
     35 H13         7.741707    6.668319   19.995736 H         1 PHENYL      0.061758 
     36 H14         7.774603    7.139511   17.557210 H         1 PHENYL      0.061767 
     37 H15         7.893703    5.277348   15.933818 H         1 PHENYL      0.062111 
     38 H16        10.873661   -2.990014   13.584382 H         3 PHENYL      0.062054 
@<TRIPOS>BOND
     1    1   22 1    
     2   16    2 1    
     3    4    3 1    
     4    5    4 1    
     5    5    6 2    
     6    6    1 1    
     7    7    5 1    
     8    6    8 1    
     9    4    9 2    
    10   11   12 ar   
    11   11   30 ar   
    12   30   15 ar   
    13   15   14 ar   
    14   14   13 ar   
    15   13   12 ar   
    16   10    7 1    
    17   16   17 ar   
    18   16   21 ar   
    19   21   20 ar   
    20   20   19 ar   
    21   19   18 ar   
    22   18   17 ar   
    23    3    2 1    
    24    1    2 1    
    25    1   23 1    
    26    2   24 1    
    27    8   25 1    
    28   10   26 1    
    29   10   27 1    
    30   12   28 1    
    31   13   29 1    
    32   14   31 1    
    33   10   11 1    
    34   15   32 1    
    35   17   33 1    
    36   18   34 1    
    37   19   35 1    
    38   20   36 1    
    39   21   37 1    
    40   30   38 1    
@<TRIPOS>SUBSTRUCTURE
     1 PHENYL     16 PERM              0 ****  ****    2  
     2 PHENYL     10 PERM              0 ****  ****    3 ROOT 
     3 PHENYL     11 PERM              0 ****  ****    1  
@<TRIPOS>SET
ATOM$CYAN       STATIC     ATOMS    COLORGROUP SYSTEM 
38 1 2 3 4 5 6 7 8 9 10 11 12 13 14 15 16 17 18 19 \
 20 21 22 23 24 25 26 27 28 29 30 31 32 33 34 35 36 37 \
 38
@<TRIPOS>NORMAL
@<TRIPOS>FF_PBC
FORCE_FIELD_SETUP_FEATURE Force Field Setup information
v1.0  0 0.000000 0.000000 0.000000 0.000000 0.000000 0.000000 NONE 0 0 0 0 1 0 0 0 0 0 0 0 0
