#	Name:			T05
#	Creating user name:	ccollar
#	Creation time:		Fri Jul 29 21:47:59 2005

#	Modifying user name:	ccollar
#	Modification time:	Fri Jul 29 22:03:47 2005

@<TRIPOS>MOLECULE
T05
   47    49     3     1     1
SMALL
GASTEIGER


@<TRIPOS>ATOM
      1 C1          7.016148    2.472725   15.366824 C.3       2 PHENYL      0.028855 
      2 C2          8.249262    2.828424   16.244912 C.3       1 PHENYL      0.109873 
      3 O3          9.037236    1.659370   16.568529 O.3       2 PHENYL     -0.299227 
      4 C4          9.237844    0.746520   15.605746 C.2       2 PHENYL      0.303185 
      5 C5          8.440026    0.712168   14.365218 C.2       2 PHENYL      0.105412 
      6 C6          7.384782    1.529818   14.262115 C.2       2 PHENYL      0.072139 
      7 S7          8.900501   -0.445174   13.072525 S.3       2 PHENYL     -0.112561 
      8 O8          6.576227    1.572961   13.190957 O.3       2 PHENYL     -0.362718 
      9 O9         10.097997   -0.098586   15.788786 O.2       2 PHENYL     -0.258548 
     10 C          10.470238    0.329836   12.576900 C.3       2 PHENYL      0.023660 
     11 C          11.057180   -0.551985   11.469207 C.ar      3 PHENYL     -0.037218 
     12 C          10.869709   -0.226024   10.120977 C.ar      3 PHENYL     -0.057776 
     13 C          11.422264   -1.027941    9.117893 C.ar      3 PHENYL     -0.061476 
     14 C          12.160635   -2.164838    9.457994 C.ar      3 PHENYL     -0.061741 
     15 C          12.341844   -2.500247   10.802596 C.ar      3 PHENYL     -0.061476 
     16 C           7.749000    3.413436   17.591860 C.ar      1 PHENYL     -0.014883 
     17 C           6.820596    4.464539   17.614066 C.ar      1 PHENYL     -0.055818 
     18 C           6.336202    4.977017   18.821144 C.ar      1 PHENYL     -0.061411 
     19 C           6.786823    4.455082   20.035144 C.ar      1 PHENYL     -0.061739 
     20 C           7.728870    3.424571   20.031057 C.ar      1 PHENYL     -0.061411 
     21 C           8.208486    2.915560   18.820431 C.ar      1 PHENYL     -0.055818 
     22 C22         9.168061    3.921284   15.611909 C.3       1 PHENYL     -0.018819 
     23 C23         9.866936    3.549341   14.276206 C.3       1 PHENYL     -0.052958 
     24 C24        10.745463    4.716935   13.754200 C.3       1 PHENYL     -0.065176 
     25 H1          6.249123    1.969649   15.975648 H         2 PHENYL      0.036464 
     26 H2          6.575963    3.376342   14.920022 H         2 PHENYL      0.036464 
     27 H3          6.776067    0.985516   12.471095 H         2 PHENYL      0.216929 
     28 H4         11.166142    0.379454   13.427560 H         2 PHENYL      0.042841 
     29 H5         10.280778    1.349722   12.210935 H         2 PHENYL      0.042841 
     30 C          11.788248   -1.697298   11.804134 C.ar      3 PHENYL     -0.057776 
     31 H6         10.292652    0.650934    9.845501 H         3 PHENYL      0.062054 
     32 H7         11.277663   -0.767856    8.073637 H         3 PHENYL      0.061767 
     33 H8         12.592128   -2.786460    8.679315 H         3 PHENYL      0.061758 
     34 H9         12.912393   -3.384785   11.069144 H         3 PHENYL      0.061767 
     35 H10         6.458210    4.906872   16.693778 H         1 PHENYL      0.062120 
     36 H11         5.608450    5.783130   18.816714 H         1 PHENYL      0.061768 
     37 H12         6.408832    4.847812   20.974236 H         1 PHENYL      0.061758 
     38 H13         8.089277    3.018776   20.971740 H         1 PHENYL      0.061768 
     39 H14         8.949097    2.124362   18.862031 H         1 PHENYL      0.062120 
     40 H15         9.953795    4.156910   16.348600 H         1 PHENYL      0.029646 
     41 H16         8.584153    4.839115   15.441445 H         1 PHENYL      0.029646 
     42 H17         9.118702    3.315757   13.503082 H         1 PHENYL      0.026364 
     43 H18        10.521428    2.677933   14.427551 H         1 PHENYL      0.026364 
     44 H19        11.523754    4.973655   14.489850 H         1 PHENYL      0.022979 
     45 H20        10.129456    5.610183   13.565996 H         1 PHENYL      0.022979 
     46 H21        11.238059    4.428466   12.811783 H         1 PHENYL      0.022979 
     47 H22        11.927176   -1.968073   12.846198 H         3 PHENYL      0.062054 
@<TRIPOS>BOND
     1    2   22 1    
     2   16    2 1    
     3    4    3 1    
     4    5    4 1    
     5    5    6 2    
     6    6    1 1    
     7    7    5 1    
     8    6    8 1    
     9    4    9 2    
    10   11   12 ar   
    11   11   30 ar   
    12   30   15 ar   
    13   15   14 ar   
    14   14   13 ar   
    15   13   12 ar   
    16   10    7 1    
    17   16   17 ar   
    18   16   21 ar   
    19   21   20 ar   
    20   20   19 ar   
    21   19   18 ar   
    22   18   17 ar   
    23    3    2 1    
    24    1    2 1    
    25   22   23 1    
    26   23   24 1    
    27    1   25 1    
    28    1   26 1    
    29    8   27 1    
    30   10   28 1    
    31   10   29 1    
    32   12   31 1    
    33   10   11 1    
    34   13   32 1    
    35   14   33 1    
    36   15   34 1    
    37   17   35 1    
    38   18   36 1    
    39   19   37 1    
    40   20   38 1    
    41   21   39 1    
    42   22   40 1    
    43   22   41 1    
    44   23   42 1    
    45   23   43 1    
    46   24   44 1    
    47   24   45 1    
    48   24   46 1    
    49   30   47 1    
@<TRIPOS>SUBSTRUCTURE
     1 PHENYL     16 PERM              0 ****  ****    2  
     2 PHENYL     10 PERM              0 ****  ****    3 ROOT 
     3 PHENYL     11 PERM              0 ****  ****    1  
@<TRIPOS>SET
ATOM$CYAN       STATIC     ATOMS    COLORGROUP SYSTEM 
47 1 2 3 4 5 6 7 8 9 10 11 12 13 14 15 16 17 18 19 \
 20 21 22 23 24 25 26 27 28 29 30 31 32 33 34 35 36 37 \
 38 39 40 41 42 43 44 45 46 47
@<TRIPOS>NORMAL
@<TRIPOS>FF_PBC
FORCE_FIELD_SETUP_FEATURE Force Field Setup information
v1.0  0 0.000000 0.000000 0.000000 0.000000 0.000000 0.000000 NONE 0 0 0 0 1 0 0 0 0 0 0 0 0
