#	Name:			T06
#	Creating user name:	ccollar
#	Creation time:		Fri Jul 29 21:47:59 2005

#	Modifying user name:	ccollar
#	Modification time:	Fri Jul 29 22:06:10 2005

@<TRIPOS>MOLECULE
T06
   50    52     3     1     1
SMALL
GASTEIGER


@<TRIPOS>ATOM
      1 C1          7.512153    1.574248   14.616943 C.3       2 PHENYL      0.028855 
      2 C2          8.614626    1.918803   15.658216 C.3       1 PHENYL      0.109881 
      3 O3          9.575425    0.846703   15.800808 O.3       2 PHENYL     -0.299227 
      4 C4          9.984946    0.213645   14.690631 C.2       2 PHENYL      0.303185 
      5 C5          9.274454    0.329085   13.402892 C.2       2 PHENYL      0.105412 
      6 C6          8.099483    0.970554   13.377481 C.2       2 PHENYL      0.072139 
      7 S7         10.002428   -0.422647   11.944263 S.3       2 PHENYL     -0.112561 
      8 O8          7.355683    1.121276   12.269796 O.3       2 PHENYL     -0.362718 
      9 O9         10.969031   -0.502562   14.769553 O.2       2 PHENYL     -0.258548 
     10 C          11.416263    0.707141   11.755579 C.3       2 PHENYL      0.023660 
     11 C          12.215435    0.216726   10.543402 C.ar      3 PHENYL     -0.037218 
     12 C          12.133663    0.876845    9.311756 C.ar      3 PHENYL     -0.057776 
     13 C          12.878256    0.424016    8.218519 C.ar      3 PHENYL     -0.061476 
     14 C          13.705643   -0.694748    8.349916 C.ar      3 PHENYL     -0.061741 
     15 C          13.784737   -1.361613    9.575601 C.ar      3 PHENYL     -0.061476 
     16 C           7.946841    2.104610   17.046076 C.ar      1 PHENYL     -0.014883 
     17 C           6.851537    2.966565   17.202729 C.ar      1 PHENYL     -0.055818 
     18 C           6.219749    3.116387   18.440781 C.ar      1 PHENYL     -0.061411 
     19 C           6.685090    2.414626   19.554456 C.ar      1 PHENYL     -0.061739 
     20 C           7.789147    1.570462   19.420916 C.ar      1 PHENYL     -0.061411 
     21 C           8.415884    1.424043   18.179742 C.ar      1 PHENYL     -0.055818 
     22 C22         9.362001    3.256249   15.353481 C.3       1 PHENYL     -0.018579 
     23 C23        10.189342    3.299556   14.040399 C.3       1 PHENYL     -0.050354 
     24 C24        10.888751    4.673314   13.848872 C.3       1 PHENYL     -0.055811 
     25 C25        11.726211    4.699184   12.543019 C.3       1 PHENYL     -0.065275 
     26 H1          6.813532    0.833161   15.035048 H         2 PHENYL      0.036464 
     27 H2          6.945120    2.472417   14.331128 H         2 PHENYL      0.036464 
     28 H3          7.694472    0.747586   11.464296 H         2 PHENYL      0.216929 
     29 H4         12.053704    0.686107   12.652065 H         2 PHENYL      0.042841 
     30 C          13.039317   -0.907491   10.667530 C.ar      3 PHENYL     -0.057776 
     31 H5         11.047502    1.731347   11.601134 H         2 PHENYL      0.042841 
     32 H6         11.491158    1.743897    9.196229 H         3 PHENYL      0.062054 
     33 H7         12.813839    0.941521    7.266109 H         3 PHENYL      0.061767 
     34 H8         14.285451   -1.045353    7.501481 H         3 PHENYL      0.061758 
     35 H9         14.424885   -2.232468    9.679520 H         3 PHENYL      0.061767 
     36 H10         6.470127    3.539924   16.366230 H         1 PHENYL      0.062120 
     37 H11         5.365572    3.779897   18.538740 H         1 PHENYL      0.061768 
     38 H12         6.193383    2.525116   20.516247 H         1 PHENYL      0.061758 
     39 H13         8.161036    1.027153   20.284605 H         1 PHENYL      0.061768 
     40 H14         9.277935    0.768459   18.122331 H         1 PHENYL      0.062120 
     41 H15        10.051365    3.445877   16.192755 H         1 PHENYL      0.029654 
     42 H16         8.637588    4.084874   15.322513 H         1 PHENYL      0.029654 
     43 H17         9.533260    3.125855   13.174155 H         1 PHENYL      0.026619 
     44 H18        10.969878    2.525705   14.072494 H         1 PHENYL      0.026619 
     45 H19        11.553887    4.874389   14.705432 H         1 PHENYL      0.026266 
     46 H20        10.131112    5.473671   13.805867 H         1 PHENYL      0.026266 
     47 H21        12.505978    3.921883   12.569277 H         1 PHENYL      0.022978 
     48 H22        12.214426    5.679627   12.425871 H         1 PHENYL      0.022978 
     49 H23        11.081171    4.523578   11.667932 H         1 PHENYL      0.022978 
     50 H24        13.101101   -1.432856   11.615581 H         3 PHENYL      0.062054 
@<TRIPOS>BOND
     1    2   22 1    
     2   16    2 1    
     3    4    3 1    
     4    5    4 1    
     5    5    6 2    
     6    6    1 1    
     7    7    5 1    
     8    6    8 1    
     9    4    9 2    
    10   11   12 ar   
    11   11   30 ar   
    12   30   15 ar   
    13   15   14 ar   
    14   14   13 ar   
    15   13   12 ar   
    16   10    7 1    
    17   16   17 ar   
    18   16   21 ar   
    19   21   20 ar   
    20   20   19 ar   
    21   19   18 ar   
    22   18   17 ar   
    23    3    2 1    
    24    1    2 1    
    25   22   23 1    
    26   23   24 1    
    27   24   25 1    
    28    1   26 1    
    29    1   27 1    
    30    8   28 1    
    31   10   29 1    
    32   10   31 1    
    33   10   11 1    
    34   12   32 1    
    35   13   33 1    
    36   14   34 1    
    37   15   35 1    
    38   17   36 1    
    39   18   37 1    
    40   19   38 1    
    41   20   39 1    
    42   21   40 1    
    43   22   41 1    
    44   22   42 1    
    45   23   43 1    
    46   23   44 1    
    47   24   45 1    
    48   24   46 1    
    49   25   47 1    
    50   25   48 1    
    51   25   49 1    
    52   30   50 1    
@<TRIPOS>SUBSTRUCTURE
     1 PHENYL     16 PERM              0 ****  ****    2  
     2 PHENYL     10 PERM              0 ****  ****    3 ROOT 
     3 PHENYL     11 PERM              0 ****  ****    1  
@<TRIPOS>SET
ATOM$CYAN       STATIC     ATOMS    COLORGROUP SYSTEM 
50 1 2 3 4 5 6 7 8 9 10 11 12 13 14 15 16 17 18 19 \
 20 21 22 23 24 25 26 27 28 29 30 31 32 33 34 35 36 37 \
 38 39 40 41 42 43 44 45 46 47 48 49 50
@<TRIPOS>NORMAL
@<TRIPOS>FF_PBC
FORCE_FIELD_SETUP_FEATURE Force Field Setup information
v1.0  0 0.000000 0.000000 0.000000 0.000000 0.000000 0.000000 NONE 0 0 0 0 1 0 0 0 0 0 0 0 0
