#	Name:			T07
#	Creating user name:	ccollar
#	Creation time:		Fri Jul 29 21:47:59 2005

#	Modifying user name:	ccollar
#	Modification time:	Fri Jul 29 22:08:08 2005

@<TRIPOS>MOLECULE
T07
   53    55     3     1     1
SMALL
GASTEIGER


@<TRIPOS>ATOM
      1 C1          7.486964    1.956965   15.031701 C.3       2 PHENYL      0.028855 
      2 C2          8.656836    2.299278   15.997449 C.3       1 PHENYL      0.109881 
      3 O3          9.563494    1.183982   16.161951 O.3       2 PHENYL     -0.299227 
      4 C4          9.882343    0.463413   15.075599 C.2       2 PHENYL      0.303185 
      5 C5          9.116547    0.542920   13.817186 C.2       2 PHENYL      0.105412 
      6 C6          7.978440    1.248128   13.806239 C.2       2 PHENYL      0.072139 
      7 S7          9.730012   -0.334117   12.375901 S.3       2 PHENYL     -0.112561 
      8 O8          7.190212    1.375523   12.726722 O.3       2 PHENYL     -0.362718 
      9 O9         10.828502   -0.302316   15.153402 O.2       2 PHENYL     -0.258548 
     10 C          11.190266    0.702402   12.052484 C.3       2 PHENYL      0.023660 
     11 C          11.904266    0.099345   10.837989 C.ar      3 PHENYL     -0.037218 
     12 C          11.822128    0.705118    9.578718 C.ar      3 PHENYL     -0.057776 
     13 C          12.488555    0.147403    8.483518 C.ar      3 PHENYL     -0.061476 
     14 C          13.237763   -1.021943    8.640893 C.ar      3 PHENYL     -0.061741 
     15 C          13.317289   -1.633965    9.894837 C.ar      3 PHENYL     -0.061476 
     16 C           8.069694    2.605267   17.400375 C.ar      1 PHENYL     -0.014883 
     17 C           7.031906    3.536260   17.553562 C.ar      1 PHENYL     -0.055818 
     18 C           6.471022    3.794964   18.807684 C.ar      1 PHENYL     -0.061411 
     19 C           6.951803    3.134778   19.940072 C.ar      1 PHENYL     -0.061739 
     20 C           8.000575    2.222570   19.808437 C.ar      1 PHENYL     -0.061411 
     21 C           8.556666    1.967579   18.551272 C.ar      1 PHENYL     -0.055818 
     22 C22         9.459886    3.571197   15.575858 C.3       1 PHENYL     -0.018571 
     23 C23        10.222019    3.487923   14.225757 C.3       1 PHENYL     -0.050113 
     24 C24        10.985507    4.804652   13.914366 C.3       1 PHENYL     -0.053206 
     25 C25        11.758174    4.701833   12.570317 C.3       1 PHENYL     -0.055910 
     26 C26        12.522888    6.014217   12.257592 C.3       1 PHENYL     -0.065276 
     27 H1          6.770859    1.283182   15.526967 H         2 PHENYL      0.036464 
     28 H2          6.955939    2.867496   14.717266 H         2 PHENYL      0.036464 
     29 H3          7.468117    0.936136   11.931130 H         2 PHENYL      0.216929 
     30 C          12.650138   -1.074938   10.988699 C.ar      3 PHENYL     -0.057776 
     31 H4         11.869356    0.698974   12.918079 H         2 PHENYL      0.042841 
     32 H5         10.867321    1.734146   11.852949 H         2 PHENYL      0.042841 
     33 H6         11.240124    1.611076    9.442972 H         3 PHENYL      0.062054 
     34 H7         12.424153    0.622707    7.509358 H         3 PHENYL      0.061767 
     35 H8         13.756669   -1.454234    7.790720 H         3 PHENYL      0.061758 
     36 H9         13.896972   -2.543616   10.019205 H         3 PHENYL      0.061767 
     37 H10         6.641459    4.079990   16.701589 H         1 PHENYL      0.062120 
     38 H11         5.660092    4.510949   18.903586 H         1 PHENYL      0.061768 
     39 H12         6.514682    3.329756   20.914716 H         1 PHENYL      0.061758 
     40 H13         8.384470    1.710880   20.686062 H         1 PHENYL      0.061768 
     41 H14         9.378322    1.261939   18.495056 H         1 PHENYL      0.062120 
     42 H15        10.199352    3.770739   16.368914 H         1 PHENYL      0.029655 
     43 H16         8.780993    4.436666   15.526775 H         1 PHENYL      0.029655 
     44 H17         9.514529    3.299927   13.404170 H         1 PHENYL      0.026627 
     45 H18        10.959177    2.673339   14.271225 H         1 PHENYL      0.026627 
     46 H19        11.699464    5.016440   14.727443 H         1 PHENYL      0.026521 
     47 H20        10.269020    5.640758   13.858076 H         1 PHENYL      0.026521 
     48 H21        11.049947    4.495467   11.750442 H         1 PHENYL      0.026265 
     49 H22        12.480235    3.869541   12.620205 H         1 PHENYL      0.026265 
     50 H23        13.253020    6.232410   13.052531 H         1 PHENYL      0.022978 
     51 H24        11.820857    6.859101   12.180481 H         1 PHENYL      0.022978 
     52 H25        13.063279    5.919641   11.302331 H         1 PHENYL      0.022978 
     53 H26        12.711899   -1.557453   11.959260 H         3 PHENYL      0.062054 
@<TRIPOS>BOND
     1    2   22 1    
     2   16    2 1    
     3    4    3 1    
     4    5    4 1    
     5    5    6 2    
     6    6    1 1    
     7    7    5 1    
     8    6    8 1    
     9    4    9 2    
    10   11   12 ar   
    11   11   30 ar   
    12   30   15 ar   
    13   15   14 ar   
    14   14   13 ar   
    15   13   12 ar   
    16   10    7 1    
    17   16   17 ar   
    18   16   21 ar   
    19   21   20 ar   
    20   20   19 ar   
    21   19   18 ar   
    22   18   17 ar   
    23    3    2 1    
    24    1    2 1    
    25   22   23 1    
    26   23   24 1    
    27   24   25 1    
    28   25   26 1    
    29    1   27 1    
    30    1   28 1    
    31    8   29 1    
    32   10   31 1    
    33   10   11 1    
    34   10   32 1    
    35   12   33 1    
    36   13   34 1    
    37   14   35 1    
    38   15   36 1    
    39   17   37 1    
    40   18   38 1    
    41   19   39 1    
    42   20   40 1    
    43   21   41 1    
    44   22   42 1    
    45   22   43 1    
    46   23   44 1    
    47   23   45 1    
    48   24   46 1    
    49   24   47 1    
    50   25   48 1    
    51   25   49 1    
    52   26   50 1    
    53   26   51 1    
    54   26   52 1    
    55   30   53 1    
@<TRIPOS>SUBSTRUCTURE
     1 PHENYL     16 PERM              0 ****  ****    2  
     2 PHENYL     10 PERM              0 ****  ****    3 ROOT 
     3 PHENYL     11 PERM              0 ****  ****    1  
@<TRIPOS>SET
ATOM$CYAN       STATIC     ATOMS    COLORGROUP SYSTEM 
53 1 2 3 4 5 6 7 8 9 10 11 12 13 14 15 16 17 18 19 \
 20 21 22 23 24 25 26 27 28 29 30 31 32 33 34 35 36 37 \
 38 39 40 41 42 43 44 45 46 47 48 49 50 51 52 53
@<TRIPOS>NORMAL
@<TRIPOS>FF_PBC
FORCE_FIELD_SETUP_FEATURE Force Field Setup information
v1.0  0 0.000000 0.000000 0.000000 0.000000 0.000000 0.000000 NONE 0 0 0 0 1 0 0 0 0 0 0 0 0
