#	Name:			T10
#	Creating user name:	ccollar
#	Creation time:		Fri Jul 29 21:47:59 2005

#	Modifying user name:	ccollar
#	Modification time:	Fri Jul 29 22:15:18 2005

@<TRIPOS>MOLECULE
T10
   53    55     3     1     1
SMALL
GASTEIGER


@<TRIPOS>ATOM
      1 C1          6.821914    2.081042   14.667005 C.3       2 PHENYL      0.028855 
      2 C2          8.197802    1.587513   15.199247 C.3       1 PHENYL      0.109890 
      3 O3          8.685108    0.446235   14.454760 O.3       2 PHENYL     -0.299227 
      4 C4          8.521086    0.440126   13.122718 C.2       2 PHENYL      0.303185 
      5 C5          7.608110    1.369240   12.430633 C.2       2 PHENYL      0.105412 
      6 C6          6.803212    2.142263   13.169952 C.2       2 PHENYL      0.072139 
      7 S7          7.599737    1.393165   10.635917 S.3       2 PHENYL     -0.112561 
      8 O8          5.922407    3.012901   12.651168 O.3       2 PHENYL     -0.362718 
      9 O9          9.139236   -0.386430   12.472891 O.2       2 PHENYL     -0.258548 
     10 C           9.226456    2.171227   10.395107 C.3       2 PHENYL      0.023660 
     11 C           9.460441    2.268833    8.883757 C.ar      3 PHENYL     -0.037218 
     12 C           9.409481    3.501323    8.221989 C.ar      3 PHENYL     -0.057776 
     13 C           9.633804    3.570874    6.843756 C.ar      3 PHENYL     -0.061476 
     14 C           9.906862    2.407489    6.118882 C.ar      3 PHENYL     -0.061741 
     15 C           9.953975    1.174128    6.774507 C.ar      3 PHENYL     -0.061476 
     16 C           8.029051    1.110702   16.666399 C.ar      1 PHENYL     -0.014883 
     17 C           7.372877    1.913503   17.611081 C.ar      1 PHENYL     -0.055818 
     18 C           7.178728    1.474712   18.924150 C.ar      1 PHENYL     -0.061411 
     19 C           7.657887    0.225772   19.323879 C.ar      1 PHENYL     -0.061739 
     20 C           8.339355   -0.573441   18.404013 C.ar      1 PHENYL     -0.061411 
     21 C           8.529254   -0.129115   17.092066 C.ar      1 PHENYL     -0.055818 
     22 C22         9.283079    2.711079   15.236548 C.3       1 PHENYL     -0.018338 
     23 C23         9.704866    3.308342   13.865600 C.3       1 PHENYL     -0.047757 
     24 C24        10.866182    4.346165   13.954055 C.3       1 PHENYL     -0.046621 
     25 C25        11.301904    4.770464   12.521950 C.3       1 PHENYL     -0.062664 
     26 C26        10.479504    5.609922   14.773847 C.3       1 PHENYL     -0.062664 
     27 H1          6.025860    1.383267   14.969441 H         2 PHENYL      0.036464 
     28 H2          6.581271    3.081554   15.055613 H         2 PHENYL      0.036464 
     29 H3          5.879912    3.075886   11.703803 H         2 PHENYL      0.216929 
     30 C           9.729962    1.106594    8.152680 C.ar      3 PHENYL     -0.057776 
     31 H4         10.020592    1.559726   10.848944 H         2 PHENYL      0.042841 
     32 H5          9.221753    3.164587   10.865817 H         2 PHENYL      0.042841 
     33 H6          9.194982    4.411478    8.772903 H         3 PHENYL      0.062054 
     34 H7          9.595799    4.529581    6.335351 H         3 PHENYL      0.061767 
     35 H8         10.081784    2.461636    5.048639 H         3 PHENYL      0.061758 
     36 H9         10.164332    0.268646    6.213434 H         3 PHENYL      0.061767 
     37 H10         7.002905    2.896643   17.346045 H         1 PHENYL      0.062120 
     38 H11         6.655097    2.105413   19.636540 H         1 PHENYL      0.061768 
     39 H12         7.503158   -0.120383   20.341357 H         1 PHENYL      0.061758 
     40 H13         8.722755   -1.542285   18.710252 H         1 PHENYL      0.061768 
     41 H14         9.078540   -0.773448   16.414265 H         1 PHENYL      0.062120 
     42 H15        10.183138    2.289496   15.713378 H         1 PHENYL      0.029663 
     43 H16         8.910181    3.523101   15.876388 H         1 PHENYL      0.029663 
     44 H17         8.840629    3.787141   13.381086 H         1 PHENYL      0.026876 
     45 H18        10.061715    2.483586   13.233257 H         1 PHENYL      0.026876 
     46 H19        11.735039    3.868990   14.441471 H         1 PHENYL      0.029550 
     47 H20        12.151018    5.470278   12.565812 H         1 PHENYL      0.023233 
     48 H21        10.469576    5.265763   11.998624 H         1 PHENYL      0.023233 
     49 H22        11.616235    3.894867   11.932629 H         1 PHENYL      0.023233 
     50 H23         9.556426    6.057723   14.375043 H         1 PHENYL      0.023233 
     51 H24        11.282129    6.361664   14.718774 H         1 PHENYL      0.023233 
     52 H25        10.328947    5.372377   15.836851 H         1 PHENYL      0.023233 
     53 H26         9.764911    0.145376    8.656185 H         3 PHENYL      0.062054 
@<TRIPOS>BOND
     1    2   22 1    
     2   16    2 1    
     3    4    3 1    
     4    5    4 1    
     5    5    6 2    
     6    6    1 1    
     7    7    5 1    
     8    6    8 1    
     9    4    9 2    
    10   11   12 ar   
    11   11   30 ar   
    12   30   15 ar   
    13   15   14 ar   
    14   14   13 ar   
    15   13   12 ar   
    16   10    7 1    
    17   16   17 ar   
    18   16   21 ar   
    19   21   20 ar   
    20   20   19 ar   
    21   19   18 ar   
    22   18   17 ar   
    23    3    2 1    
    24    1    2 1    
    25   22   23 1    
    26   23   24 1    
    27   24   25 1    
    28   24   26 1    
    29    1   27 1    
    30    1   28 1    
    31    8   29 1    
    32   10   31 1    
    33   10   11 1    
    34   10   32 1    
    35   12   33 1    
    36   13   34 1    
    37   14   35 1    
    38   15   36 1    
    39   17   37 1    
    40   18   38 1    
    41   19   39 1    
    42   20   40 1    
    43   21   41 1    
    44   22   42 1    
    45   22   43 1    
    46   23   44 1    
    47   23   45 1    
    48   24   46 1    
    49   25   47 1    
    50   25   48 1    
    51   25   49 1    
    52   26   50 1    
    53   26   51 1    
    54   26   52 1    
    55   30   53 1    
@<TRIPOS>SUBSTRUCTURE
     1 PHENYL     16 PERM              0 ****  ****    2  
     2 PHENYL     10 PERM              0 ****  ****    3 ROOT 
     3 PHENYL     11 PERM              0 ****  ****    1  
@<TRIPOS>SET
ATOM$CYAN       STATIC     ATOMS    COLORGROUP SYSTEM 
53 1 2 3 4 5 6 7 8 9 10 11 12 13 14 15 16 17 18 19 \
 20 21 22 23 24 25 26 27 28 29 30 31 32 33 34 35 36 37 \
 38 39 40 41 42 43 44 45 46 47 48 49 50 51 52 53
@<TRIPOS>NORMAL
@<TRIPOS>FF_PBC
FORCE_FIELD_SETUP_FEATURE Force Field Setup information
v1.0  0 0.000000 0.000000 0.000000 0.000000 0.000000 0.000000 NONE 0 0 0 0 1 0 0 0 0 0 0 0 0
