#	Name:			T12
#	Creating user name:	ccollar
#	Creation time:		Fri Jul 29 21:47:59 2005

#	Modifying user name:	ccollar
#	Modification time:	Fri Jul 29 22:20:10 2005

@<TRIPOS>MOLECULE
T12
   54    57     3     1     1
SMALL
GASTEIGER


@<TRIPOS>ATOM
      1 C1          7.150351    1.612024   12.878052 C.3       2 PHENYL      0.028864 
      2 C2          8.282799    1.069663   13.793167 C.3       1 PHENYL      0.110131 
      3 O3          9.210292    0.245486   13.049280 O.3       2 PHENYL     -0.299218 
      4 C4          9.535860    0.621574   11.798864 C.2       2 PHENYL      0.303185 
      5 C5          8.846449    1.716951   11.084938 C.2       2 PHENYL      0.105412 
      6 C6          7.714456    2.192877   11.619545 C.2       2 PHENYL      0.072139 
      7 S7          9.499694    2.342667    9.527562 S.3       2 PHENYL     -0.112561 
      8 O8          6.990304    3.187042   11.080646 O.3       2 PHENYL     -0.362718 
      9 O9         10.422071    0.002194   11.234944 O.2       2 PHENYL     -0.258548 
     10 C          11.221149    2.735526    9.972708 C.3       2 PHENYL      0.023660 
     11 C          11.837905    3.410914    8.742500 C.ar      3 PHENYL     -0.037218 
     12 C          12.019334    4.798263    8.697880 C.ar      3 PHENYL     -0.057776 
     13 C          12.594495    5.398637    7.573879 C.ar      3 PHENYL     -0.061476 
     14 C          12.986556    4.615106    6.484962 C.ar      3 PHENYL     -0.061741 
     15 C          12.800165    3.230500    6.521300 C.ar      3 PHENYL     -0.061476 
     16 C           7.599205    0.153921   14.841035 C.ar      1 PHENYL     -0.014874 
     17 C           6.696239    0.693297   15.768294 C.ar      1 PHENYL     -0.055818 
     18 C           6.075233   -0.114585   16.725287 C.ar      1 PHENYL     -0.061411 
     19 C           6.346891   -1.483538   16.768701 C.ar      1 PHENYL     -0.061739 
     20 C           7.239930   -2.036333   15.848480 C.ar      1 PHENYL     -0.061411 
     21 C           7.857437   -1.223753   14.892911 C.ar      1 PHENYL     -0.055818 
     22 C22         9.035486    2.193962   14.582925 C.3       1 PHENYL     -0.015734 
     23 C23        10.242341    2.877622   13.880924 C.3       1 PHENYL     -0.038091 
     24 C24        11.515074    1.979852   13.773137 C.3       1 PHENYL     -0.050109 
     25 C25        12.676864    2.799196   14.393017 C.3       1 PHENYL     -0.052797 
     26 C26        12.201718    4.260964   14.253808 C.3       1 PHENYL     -0.052797 
     27 C27        10.718590    4.133609   14.661314 C.3       1 PHENYL     -0.050109 
     28 H1          6.491475    0.785289   12.569513 H         2 PHENYL      0.036464 
     29 H2          6.534847    2.364048   13.394140 H         2 PHENYL      0.036464 
     30 C          12.225392    2.632069    7.646336 C.ar      3 PHENYL     -0.057776 
     31 H3          7.315466    3.579803   10.278793 H         2 PHENYL      0.216929 
     32 H4         11.788590    1.823760   10.207009 H         2 PHENYL      0.042841 
     33 H5         11.243358    3.409112   10.840381 H         2 PHENYL      0.042841 
     34 H6         11.713874    5.418168    9.534757 H         3 PHENYL      0.062054 
     35 H7         12.736746    6.474769    7.546274 H         3 PHENYL      0.061767 
     36 H8         13.434595    5.081042    5.612547 H         3 PHENYL      0.061758 
     37 H9         13.101570    2.619827    5.675596 H         3 PHENYL      0.061767 
     38 H10         6.460658    1.751191   15.761479 H         1 PHENYL      0.062120 
     39 H11         5.380213    0.321379   17.436815 H         1 PHENYL      0.061768 
     40 H12         5.867413   -2.113343   17.511969 H         1 PHENYL      0.061758 
     41 H13         7.454269   -3.100607   15.876383 H         1 PHENYL      0.061768 
     42 H14         8.541296   -1.691682   14.193231 H         1 PHENYL      0.062120 
     43 H15         9.429380    1.764773   15.518747 H         1 PHENYL      0.029923 
     44 H16         8.324657    2.985837   14.864501 H         1 PHENYL      0.029923 
     45 H17         9.932293    3.237343   12.888684 H         1 PHENYL      0.030177 
     46 H18        11.758859    1.783028   12.719214 H         1 PHENYL      0.026795 
     47 H19        11.411740    1.008168   14.282774 H         1 PHENYL      0.026795 
     48 H20        13.648429    2.619887   13.903167 H         1 PHENYL      0.026537 
     49 H21        12.775824    2.555553   15.464880 H         1 PHENYL      0.026537 
     50 H22        12.281551    4.589384   13.203721 H         1 PHENYL      0.026537 
     51 H23        12.765635    4.958559   14.894712 H         1 PHENYL      0.026537 
     52 H24        10.136217    5.039284   14.422941 H         1 PHENYL      0.026795 
     53 H25        10.662471    3.959713   15.749116 H         1 PHENYL      0.026795 
     54 H26        12.078928    1.556585    7.665914 H         3 PHENYL      0.062054 
@<TRIPOS>BOND
     1    2   22 1    
     2   16    2 1    
     3    4    3 1    
     4    5    4 1    
     5    5    6 2    
     6    6    1 1    
     7    7    5 1    
     8    6    8 1    
     9    4    9 2    
    10   11   12 ar   
    11   11   30 ar   
    12   30   15 ar   
    13   15   14 ar   
    14   14   13 ar   
    15   13   12 ar   
    16   10    7 1    
    17   16   17 ar   
    18   16   21 ar   
    19   21   20 ar   
    20   20   19 ar   
    21   19   18 ar   
    22   18   17 ar   
    23    3    2 1    
    24    1    2 1    
    25   22   23 1    
    26   23   24 1    
    27   24   25 1    
    28   25   26 1    
    29   26   27 1    
    30   23   27 1    
    31    1   28 1    
    32    1   29 1    
    33   10   11 1    
    34    8   31 1    
    35   10   32 1    
    36   10   33 1    
    37   12   34 1    
    38   13   35 1    
    39   14   36 1    
    40   15   37 1    
    41   17   38 1    
    42   18   39 1    
    43   19   40 1    
    44   20   41 1    
    45   21   42 1    
    46   22   43 1    
    47   22   44 1    
    48   23   45 1    
    49   24   46 1    
    50   24   47 1    
    51   25   48 1    
    52   25   49 1    
    53   26   50 1    
    54   26   51 1    
    55   27   52 1    
    56   27   53 1    
    57   30   54 1    
@<TRIPOS>SUBSTRUCTURE
     1 PHENYL     16 PERM              0 ****  ****    2  
     2 PHENYL     10 PERM              0 ****  ****    3 ROOT 
     3 PHENYL     11 PERM              0 ****  ****    1  
@<TRIPOS>SET
ATOM$CYAN       STATIC     ATOMS    COLORGROUP SYSTEM 
54 1 2 3 4 5 6 7 8 9 10 11 12 13 14 15 16 17 18 19 \
 20 21 22 23 24 25 26 27 28 29 30 31 32 33 34 35 36 37 \
 38 39 40 41 42 43 44 45 46 47 48 49 50 51 52 53 54
@<TRIPOS>NORMAL
@<TRIPOS>FF_PBC
FORCE_FIELD_SETUP_FEATURE Force Field Setup information
v1.0  0 0.000000 0.000000 0.000000 0.000000 0.000000 0.000000 NONE 0 0 0 0 1 0 0 0 0 0 0 0 0
