#	Name:			T13
#	Creating user name:	ccollar
#	Creation time:		Fri Jul 29 21:47:59 2005

#	Modifying user name:	ccollar
#	Modification time:	Fri Jul 29 22:22:55 2005

@<TRIPOS>MOLECULE
T13
   57    60     4     1     1
SMALL
GASTEIGER


@<TRIPOS>ATOM
      1 C1          7.066660    1.320995   12.647838 C.3       2 PHENYL      0.028864 
      2 C2          8.190655    1.069824   13.690059 C.3       1 PHENYL      0.110131 
      3 O3          9.260478    0.276149   13.125609 O.3       2 PHENYL     -0.299218 
      4 C4          9.653412    0.529720   11.867715 C.2       2 PHENYL      0.303185 
      5 C5          8.870791    1.376278   10.942851 C.2       2 PHENYL      0.105412 
      6 C6          7.633445    1.724831   11.320318 C.2       2 PHENYL      0.072139 
      7 S7          9.550548    1.891847    9.354970 S.3       2 PHENYL     -0.112561 
      8 O8          6.795844    2.450034   10.559992 O.3       2 PHENYL     -0.362718 
      9 O9         10.684003    0.001177   11.487759 O.2       2 PHENYL     -0.258548 
     10 C          11.314791    2.154861    9.735087 C.3       2 PHENYL      0.023660 
     11 C          11.847258    3.109505    8.659621 C.ar      4 PHENYL     -0.037218 
     12 C          12.158669    4.440303    8.963047 C.ar      4 PHENYL     -0.057776 
     13 C          12.641471    5.296751    7.969153 C.ar      4 PHENYL     -0.061476 
     14 C          12.818008    4.826801    6.664856 C.ar      4 PHENYL     -0.061741 
     15 C          12.509496    3.499105    6.356494 C.ar      4 PHENYL     -0.061476 
     16 C           7.589006    0.218744   14.841459 C.ar      1 PHENYL     -0.014874 
     17 C           6.423005    0.635409   15.500629 C.ar      1 PHENYL     -0.055818 
     18 C           5.847983   -0.136966   16.514069 C.ar      1 PHENYL     -0.061411 
     19 C           6.442067   -1.339673   16.900915 C.ar      1 PHENYL     -0.061739 
     20 C           7.616897   -1.757046   16.272538 C.ar      1 PHENYL     -0.061411 
     21 C           8.186276   -0.980438   15.258903 C.ar      1 PHENYL     -0.055818 
     22 C22         8.789894    2.344364   14.377696 C.3       1 PHENYL     -0.015734 
     23 C1          9.503503    3.423376   13.501587 C.3       3 CYCLOHEXYL   -0.038091 
     24 C2         10.610423    4.160246   14.312808 C.3       3 CYCLOHEXYL   -0.050109 
     25 C3         11.370135    5.178921   13.421637 C.3       3 CYCLOHEXYL   -0.052805 
     26 C4         10.391342    6.216089   12.816317 C.3       3 CYCLOHEXYL   -0.053040 
     27 C5          9.267906    5.498562   12.026322 C.3       3 CYCLOHEXYL   -0.052805 
     28 C6          8.522422    4.497154   12.945771 C.3       3 CYCLOHEXYL   -0.050109 
     29 H1          6.497341    0.394506   12.474987 H         2 PHENYL      0.036464 
     30 C          12.024618    2.645193    7.351432 C.ar      4 PHENYL     -0.057776 
     31 H2          6.371332    2.095929   13.001109 H         2 PHENYL      0.036464 
     32 H3          7.106245    2.731520    9.707298 H         2 PHENYL      0.216929 
     33 H4         11.864628    1.203916    9.674936 H         2 PHENYL      0.042841 
     34 H5         11.443153    2.579339   10.740279 H         2 PHENYL      0.042841 
     35 H6         12.028110    4.819190    9.970920 H         4 PHENYL      0.062054 
     36 H7         12.879722    6.328299    8.210442 H         4 PHENYL      0.061767 
     37 H8         13.193844    5.491547    5.892982 H         4 PHENYL      0.061758 
     38 H9         12.646153    3.131142    5.344115 H         4 PHENYL      0.061767 
     39 H10         5.940724    1.570354   15.240821 H         1 PHENYL      0.062120 
     40 H11         4.937881    0.197731   17.003111 H         1 PHENYL      0.061768 
     41 H12         5.995124   -1.944492   17.684144 H         1 PHENYL      0.061758 
     42 H13         8.088704   -2.687768   16.573563 H         1 PHENYL      0.061768 
     43 H14         9.106342   -1.335536   14.807764 H         1 PHENYL      0.062120 
     44 H15         9.531030    1.936578   15.084101 H         1 PHENYL      0.029923 
     45 H16         8.024671    2.855441   14.980907 H         1 PHENYL      0.029923 
     46 H17        10.020785    2.926557   12.674136 H         3 CYCLOHEXYL    0.030177 
     47 H18        11.347039    3.437362   14.702759 H         3 CYCLOHEXYL    0.026795 
     48 H19        10.157509    4.680949   15.172314 H         3 CYCLOHEXYL    0.026795 
     49 H20        12.134252    5.701257   14.021912 H         3 CYCLOHEXYL    0.026537 
     50 H21        11.886788    4.642911   12.608639 H         3 CYCLOHEXYL    0.026537 
     51 H22         9.945523    6.815562   13.627396 H         3 CYCLOHEXYL    0.026529 
     52 H23        10.939445    6.900233   12.146713 H         3 CYCLOHEXYL    0.026529 
     53 H24         8.558114    6.248260   11.637320 H         3 CYCLOHEXYL    0.026537 
     54 H25         9.696587    4.958588   11.165951 H         3 CYCLOHEXYL    0.026537 
     55 H26         7.708006    4.046383   12.367903 H         3 CYCLOHEXYL    0.026795 
     56 H27         8.061646    5.048690   13.781382 H         3 CYCLOHEXYL    0.026795 
     57 H28        11.783777    1.616037    7.103953 H         4 PHENYL      0.062054 
@<TRIPOS>BOND
     1    2   22 1    
     2   16    2 1    
     3    4    3 1    
     4    5    4 1    
     5    5    6 2    
     6    6    1 1    
     7    7    5 1    
     8    6    8 1    
     9    4    9 2    
    10   11   12 ar   
    11   11   30 ar   
    12   30   15 ar   
    13   15   14 ar   
    14   14   13 ar   
    15   13   12 ar   
    16   10    7 1    
    17   16   17 ar   
    18   16   21 ar   
    19   21   20 ar   
    20   20   19 ar   
    21   18   19 ar   
    22   17   18 ar   
    23    3    2 1    
    24    1    2 1    
    25   23   24 1    
    26   23   28 1    
    27   28   27 1    
    28   27   26 1    
    29   26   25 1    
    30   25   24 1    
    31   22   23 1    
    32    1   29 1    
    33   10   11 1    
    34    1   31 1    
    35    8   32 1    
    36   10   33 1    
    37   10   34 1    
    38   12   35 1    
    39   13   36 1    
    40   14   37 1    
    41   15   38 1    
    42   17   39 1    
    43   18   40 1    
    44   19   41 1    
    45   20   42 1    
    46   21   43 1    
    47   22   44 1    
    48   22   45 1    
    49   23   46 1    
    50   24   47 1    
    51   24   48 1    
    52   25   49 1    
    53   25   50 1    
    54   26   51 1    
    55   26   52 1    
    56   27   53 1    
    57   27   54 1    
    58   28   55 1    
    59   28   56 1    
    60   30   57 1    
@<TRIPOS>SUBSTRUCTURE
     1 PHENYL     16 PERM              0 ****  ****    3  
     2 PHENYL     10 PERM              0 ****  ****    3 ROOT 
     3 CYCLOHEXYL    23 PERM              0 ****  ****    1  
     4 PHENYL     11 PERM              0 ****  ****    1  
@<TRIPOS>SET
ATOM$CYAN       STATIC     ATOMS    COLORGROUP SYSTEM 
57 1 2 3 4 5 6 7 8 9 10 11 12 13 14 15 16 17 18 19 \
 20 21 22 23 24 25 26 27 28 29 30 31 32 33 34 35 36 37 \
 38 39 40 41 42 43 44 45 46 47 48 49 50 51 52 53 54 55 \
 56 57
@<TRIPOS>NORMAL
@<TRIPOS>FF_PBC
FORCE_FIELD_SETUP_FEATURE Force Field Setup information
v1.0  0 0.000000 0.000000 0.000000 0.000000 0.000000 0.000000 NONE 0 0 0 0 1 0 0 0 0 0 0 0 0
