#	Name:			T14
#	Creating user name:	ccollar
#	Creation time:		Fri Jul 29 22:24:40 2005

#	Modifying user name:	ccollar
#	Modification time:	Fri Jul 29 22:25:39 2005

@<TRIPOS>MOLECULE
T14
   48    51     4     1     0
SMALL
GASTEIGER


@<TRIPOS>ATOM
      1 C1          6.961252    1.052823   12.269594 C.3       2 PHENYL      0.001245 
      2 C2          8.160159    0.893792   13.244318 C.3       1 PHENYL     -0.002591 
      3 O3          9.023768   -0.139331   12.719664 O.3       2 PHENYL     -0.331275 
      4 C4          9.438838    0.081724   11.465403 C.2       2 PHENYL      0.300772 
      5 C5          8.763803    1.061960   10.591647 C.2       2 PHENYL      0.105233 
      6 C6          7.550243    1.494941   10.961103 C.2       2 PHENYL      0.069548 
      7 S7          9.594575    1.603667    9.104355 S.3       2 PHENYL     -0.112564 
      8 O8          6.798445    2.334404   10.228240 O.3       2 PHENYL     -0.362810 
      9 O9         10.378040   -0.566728   11.031989 O.2       2 PHENYL     -0.258638 
     10 C          10.762956    2.664901   10.013629 C.3       2 PHENYL      0.023660 
     11 C          11.633006    3.368409    8.966220 C.ar      4 PHENYL     -0.037218 
     12 C          11.424070    4.714259    8.643602 C.ar      4 PHENYL     -0.057776 
     13 C          12.231782    5.344688    7.692350 C.ar      4 PHENYL     -0.061476 
     14 C          13.250549    4.630769    7.055177 C.ar      4 PHENYL     -0.061741 
     15 C          13.458990    3.285021    7.369712 C.ar      4 PHENYL     -0.061476 
     16 C           7.671130    0.494123   14.654440 C.ar      1 PHENYL     -0.044482 
     17 C           6.803015    1.327046   15.372206 C.ar      1 PHENYL     -0.058390 
     18 C           6.358940    0.974739   16.650012 C.ar      1 PHENYL     -0.061496 
     19 C           6.776525   -0.225272   17.229858 C.ar      1 PHENYL     -0.061742 
     20 C           7.642523   -1.065001   16.525762 C.ar      1 PHENYL     -0.061496 
     21 C           8.086809   -0.704501   15.250044 C.ar      1 PHENYL     -0.058390 
     22 C           9.046519    2.176240   13.314828 C.3       3 PHENYL     -0.239046 
     23 C           8.352741    3.396300   13.416802 C.ar      3 PHENYL     -0.230104 
     24 C           8.363437    4.138268   14.601832 C.ar      3 PHENYL     -0.096416 
     25 C           9.221916    3.768215   15.639733 C.ar      3 PHENYL     -0.067242 
     26 C          10.131547    2.728815   15.431647 C.ar      3 PHENYL     -0.096416 
     27 C          10.103152    2.018097   14.228312 C.ar      3 PHENYL     -0.230104 
     28 H1          6.435555    0.094501   12.144242 H         2 PHENYL      0.033789 
     29 H2          6.242130    1.804009   12.625124 H         2 PHENYL      0.033789 
     30 C          12.650666    2.656671    8.321558 C.ar      4 PHENYL     -0.057776 
     31 H3          7.175861    2.634526    9.410309 H         2 PHENYL      0.216927 
     32 H4         11.393301    2.053674   10.677997 H         2 PHENYL      0.042841 
     33 H5         10.204621    3.386069   10.631268 H         2 PHENYL      0.042841 
     34 H6         10.632916    5.276508    9.129386 H         4 PHENYL      0.062054 
     35 H7         12.067428    6.389806    7.448209 H         4 PHENYL      0.061767 
     36 H8         13.878536    5.120513    6.317247 H         4 PHENYL      0.061758 
     37 H9         14.248342    2.727547    6.874797 H         4 PHENYL      0.061767 
     38 H10         6.463108    2.262605   14.946254 H         1 PHENYL      0.062034 
     39 H11         5.689478    1.635163   17.192366 H         1 PHENYL      0.061767 
     40 H12         6.431114   -0.502801   18.220800 H         1 PHENYL      0.061758 
     41 H13         7.972027   -1.998843   16.970603 H         1 PHENYL      0.061767 
     42 H14         8.764055   -1.372745   14.730230 H         1 PHENYL      0.062034 
     43 H15         7.798437    3.769173   12.562478 H         3 PHENYL      0.020971 
     44 H16         7.711227    4.998256   14.712660 H         3 PHENYL      0.058867 
     45 H17         9.190412    4.288402   16.591071 H         3 PHENYL      0.061582 
     46 H18        10.858780    2.476603   16.196154 H         3 PHENYL      0.058867 
     47 H19        10.900505    1.319619   13.997468 H         3 PHENYL      0.020971 
     48 H20        12.814268    1.610155    8.559515 H         4 PHENYL      0.062054 
@<TRIPOS>BOND
     1   22   23 ar   
     2    2   16 1    
     3    4    3 1    
     4    4    5 1    
     5    5    6 2    
     6    6    1 1    
     7    5    7 1    
     8    6    8 1    
     9    4    9 2    
    10   11   12 ar   
    11   11   30 ar   
    12   30   15 ar   
    13   15   14 ar   
    14   14   13 ar   
    15   13   12 ar   
    16    7   10 1    
    17   16   17 ar   
    18   16   21 ar   
    19   21   20 ar   
    20   20   19 ar   
    21   19   18 ar   
    22   17   18 ar   
    23    3    2 1    
    24    1    2 1    
    25   22   27 ar   
    26   27   26 ar   
    27   26   25 ar   
    28   25   24 ar   
    29   24   23 ar   
    30    2   22 1    
    31    1   28 1    
    32    1   29 1    
    33   10   11 1    
    34    8   31 1    
    35   10   32 1    
    36   10   33 1    
    37   12   34 1    
    38   13   35 1    
    39   14   36 1    
    40   15   37 1    
    41   17   38 1    
    42   18   39 1    
    43   19   40 1    
    44   20   41 1    
    45   21   42 1    
    46   23   43 1    
    47   24   44 1    
    48   25   45 1    
    49   26   46 1    
    50   27   47 1    
    51   30   48 1    
@<TRIPOS>SUBSTRUCTURE
     1 PHENYL     16 PERM              0 ****  ****    3  
     2 PHENYL     10 PERM              0 ****  ****    3 ROOT 
     3 PHENYL     22 PERM              0 ****  ****    1  
     4 PHENYL     11 PERM              0 ****  ****    1  
@<TRIPOS>NORMAL
@<TRIPOS>FF_PBC
FORCE_FIELD_SETUP_FEATURE Force Field Setup information
v1.0  0 0.000000 0.000000 0.000000 0.000000 0.000000 0.000000 NONE 0 0 0 0 1 0 0 0 0 0 0 0 0
