#	Name:			T15
#	Creating user name:	ccollar
#	Creation time:		Fri Jul 29 22:24:40 2005

#	Modifying user name:	ccollar
#	Modification time:	Fri Jul 29 22:33:25 2005

@<TRIPOS>MOLECULE
T15
   54    57     5     1     0
SMALL
GASTEIGER


@<TRIPOS>ATOM
      1 C1          7.125124    1.349866   12.225917 C.3       2 PHENYL      0.028865 
      2 C2          8.278173    1.149371   13.247636 C.3       1 PHENYL      0.110177 
      3 O3          9.247684    0.190328   12.765767 O.3       2 PHENYL     -0.299217 
      4 C4          9.591135    0.233860   11.467207 C.2       2 PHENYL      0.303185 
      5 C5          8.839073    1.022639   10.468760 C.2       2 PHENYL      0.105412 
      6 C6          7.662926    1.544488   10.842287 C.2       2 PHENYL      0.072139 
      7 S7          9.480457    1.240603    8.800343 S.3       2 PHENYL     -0.112561 
      8 O8          6.871474    2.265549   10.031290 O.3       2 PHENYL     -0.362718 
      9 O9         10.549056   -0.433015   11.115189 O.2       2 PHENYL     -0.258548 
     10 C          11.247583    1.546319    9.122671 C.3       2 PHENYL      0.023660 
     11 C          11.753783    2.430574    7.977684 C.ar      4 PHENYL     -0.037218 
     12 C          11.302116    3.751699    7.881150 C.ar      4 PHENYL     -0.057776 
     13 C          11.763568    4.584138    6.857467 C.ar      4 PHENYL     -0.061476 
     14 C          12.674384    4.094802    5.917145 C.ar      4 PHENYL     -0.061741 
     15 C          13.119958    2.772782    6.002212 C.ar      4 PHENYL     -0.061476 
     16 C           7.663497    0.562284   14.545446 C.ar      1 PHENYL     -0.014873 
     17 C           6.639291    1.242877   15.219917 C.ar      1 PHENYL     -0.055818 
     18 C           6.070094    0.722025   16.385664 C.ar      1 PHENYL     -0.061411 
     19 C           6.521215   -0.493788   16.903030 C.ar      1 PHENYL     -0.061739 
     20 C           7.544222   -1.181067   16.246839 C.ar      1 PHENYL     -0.061411 
     21 C           8.109681   -0.654987   15.081334 C.ar      1 PHENYL     -0.055818 
     22 C           8.999461    2.475518   13.657326 C.3       3 PHENYL     -0.014588 
     23 C1          9.933293    3.115673   12.595261 C.3       5 BENZYL     -0.024728 
     24 C2         10.633144    4.426058   13.005131 C.ar      5 BENZYL     -0.047254 
     25 C3         10.510887    5.017408   14.270440 C.ar      5 BENZYL     -0.058571 
     26 C4         11.169265    6.216363   14.561494 C.ar      5 BENZYL     -0.061501 
     27 C5         11.962291    6.838086   13.593959 C.ar      5 BENZYL     -0.061742 
     28 C6         12.097851    6.252990   12.333035 C.ar      5 BENZYL     -0.061501 
     29 C7         11.438436    5.054462   12.046550 C.ar      5 BENZYL     -0.058571 
     30 C          12.659228    1.942455    7.028418 C.ar      4 PHENYL     -0.057776 
     31 H1          6.484177    0.455037   12.198108 H         2 PHENYL      0.036464 
     32 H2          6.503408    2.217077   12.492718 H         2 PHENYL      0.036464 
     33 H3          7.170653    2.412982    9.141584 H         2 PHENYL      0.216929 
     34 H4         11.788726    0.589822    9.170941 H         2 PHENYL      0.042841 
     35 H5         11.392003    2.087139   10.066864 H         2 PHENYL      0.042841 
     36 H6         10.588070    4.135503    8.603104 H         4 PHENYL      0.062054 
     37 H7         11.414398    5.610265    6.792566 H         4 PHENYL      0.061767 
     38 H8         13.034577    4.740288    5.121902 H         4 PHENYL      0.061758 
     39 H9         13.824801    2.390381    5.270124 H         4 PHENYL      0.061767 
     40 H10         6.265282    2.191335   14.852890 H         1 PHENYL      0.062120 
     41 H11         5.275648    1.262721   16.891607 H         1 PHENYL      0.061768 
     42 H12         6.080584   -0.901139   17.807991 H         1 PHENYL      0.061758 
     43 H13         7.900733   -2.126704   16.644522 H         1 PHENYL      0.061768 
     44 H14         8.905251   -1.218125   14.605810 H         1 PHENYL      0.062120 
     45 H15         9.622408    2.240164   14.536138 H         3 PHENYL      0.029969 
     46 H16         8.248411    3.225096   13.948584 H         3 PHENYL      0.029969 
     47 H17        10.737458    2.403805   12.360387 H         5 BENZYL      0.031417 
     48 H18         9.361221    3.343744   11.684352 H         5 BENZYL      0.031417 
     49 H19         9.910025    4.566192   15.050247 H         5 BENZYL      0.062029 
     50 H20        11.064871    6.667544   15.543797 H         5 BENZYL      0.061766 
     51 H21        12.470653    7.770305   13.820808 H         5 BENZYL      0.061758 
     52 H22        12.714926    6.728935   11.576864 H         5 BENZYL      0.061766 
     53 H23        11.557701    4.609701   11.063789 H         5 BENZYL      0.062029 
     54 H24        13.009802    0.916737    7.081587 H         4 PHENYL      0.062054 
@<TRIPOS>BOND
     1   23   24 1    
     2    2   16 1    
     3    4    3 1    
     4    4    5 1    
     5    5    6 2    
     6    6    1 1    
     7    5    7 1    
     8    6    8 1    
     9    4    9 2    
    10   11   12 ar   
    11   11   30 ar   
    12   30   15 ar   
    13   15   14 ar   
    14   14   13 ar   
    15   13   12 ar   
    16    7   10 1    
    17   16   17 ar   
    18   16   21 ar   
    19   21   20 ar   
    20   20   19 ar   
    21   19   18 ar   
    22   17   18 ar   
    23    3    2 1    
    24    1    2 1    
    25   24   25 ar   
    26   24   29 ar   
    27   29   28 ar   
    28   28   27 ar   
    29   27   26 ar   
    30    2   22 1    
    31   26   25 ar   
    32   22   23 1    
    33   10   11 1    
    34    1   31 1    
    35    1   32 1    
    36    8   33 1    
    37   10   34 1    
    38   10   35 1    
    39   12   36 1    
    40   13   37 1    
    41   14   38 1    
    42   15   39 1    
    43   17   40 1    
    44   18   41 1    
    45   19   42 1    
    46   20   43 1    
    47   21   44 1    
    48   22   45 1    
    49   22   46 1    
    50   23   47 1    
    51   23   48 1    
    52   25   49 1    
    53   26   50 1    
    54   27   51 1    
    55   28   52 1    
    56   29   53 1    
    57   30   54 1    
@<TRIPOS>SUBSTRUCTURE
     1 PHENYL     16 PERM              0 ****  ****    3  
     2 PHENYL     10 PERM              0 ****  ****    3 ROOT 
     3 PHENYL     22 PERM              0 ****  ****    2  
     4 PHENYL     11 PERM              0 ****  ****    1  
     5 BENZYL     23 PERM              0 ****  ****    1  
@<TRIPOS>NORMAL
@<TRIPOS>FF_PBC
FORCE_FIELD_SETUP_FEATURE Force Field Setup information
v1.0  0 0.000000 0.000000 0.000000 0.000000 0.000000 0.000000 NONE 0 0 0 0 1 0 0 0 0 0 0 0 0
