#	Name:			T17
#	Creating user name:	ccollar
#	Creation time:		Fri Jul 29 22:24:40 2005

#	Modifying user name:	ccollar
#	Modification time:	Fri Jul 29 23:03:22 2005

@<TRIPOS>MOLECULE
T17
   45    48     3     1     0
SMALL
GASTEIGER


@<TRIPOS>ATOM
      1 C1          6.114300    2.609889   11.898747 C.3       2 PHENYL      0.028864 
      2 C2          7.269572    1.756648   12.494069 C.3       1 PHENYL      0.110140 
      3 O3          7.606324    0.660008   11.618915 O.3       2 PHENYL     -0.299218 
      4 C4          7.772094    0.981974   10.325749 C.2       2 PHENYL      0.303185 
      5 C5          7.346657    2.289976    9.782329 C.2       2 PHENYL      0.105412 
      6 C6          6.550824    3.061836   10.536627 C.2       2 PHENYL      0.072139 
      7 S7          7.903436    2.764046    8.146921 S.3       2 PHENYL     -0.112561 
      8 O8          6.086511    4.260571   10.151627 O.3       2 PHENYL     -0.362718 
      9 O9          8.275358    0.155987    9.582774 O.2       2 PHENYL     -0.258548 
     10 C           9.652091    2.999742    8.592362 C.3       2 PHENYL      0.023660 
     11 C          10.377141    3.410329    7.305986 C.ar      3 PHENYL     -0.037218 
     12 C          10.587768    4.761263    7.006689 C.ar      3 PHENYL     -0.057776 
     13 C          11.263003    5.128231    5.838797 C.ar      3 PHENYL     -0.061476 
     14 C          11.726264    4.145113    4.960020 C.ar      3 PHENYL     -0.061741 
     15 C          11.509643    2.795093    5.249552 C.ar      3 PHENYL     -0.061476 
     16 C16         6.823865    1.075498   13.805746 C.ar      1 PHENYL     -0.011709 
     17 C17         7.518451    1.235908   15.013807 C.ar      1 PHENYL     -0.041430 
     18 C18         8.894130    1.906660   15.069971 C.3       1 PHENYL     -0.027230 
     19 C19         8.526249    2.655782   12.707332 C.3       1 PHENYL     -0.018266 
     20 C20         5.690818    0.251251   13.793491 C.ar      1 PHENYL     -0.055558 
     21 C21         5.145702   -0.240490   14.982455 C.ar      1 PHENYL     -0.061394 
     22 C22         5.769834    0.039099   16.199474 C.ar      1 PHENYL     -0.061483 
     23 C23         6.963155    0.764619   16.209073 C.ar      1 PHENYL     -0.058224 
     24 C24         9.529686    1.972043   13.662219 C.3       1 PHENYL     -0.046100 
     25 H1          5.183525    2.043114   11.760956 H         2 PHENYL      0.036464 
     26 H2          5.898907    3.468723   12.553373 H         2 PHENYL      0.036464 
     27 H3          6.344288    4.566506    9.289407 H         2 PHENYL      0.216929 
     28 H4         10.079063    2.067190    8.991547 H         2 PHENYL      0.042841 
     29 H5          9.734720    3.782106    9.361974 H         2 PHENYL      0.042841 
     30 C          10.833875    2.430165    6.417682 C.ar      3 PHENYL     -0.057776 
     31 H6         10.226458    5.532693    7.679213 H         3 PHENYL      0.062054 
     32 H7         11.427570    6.177655    5.613742 H         3 PHENYL      0.061767 
     33 H8         12.252866    4.429517    4.054058 H         3 PHENYL      0.061758 
     34 H9         11.866036    2.029731    4.566769 H         3 PHENYL      0.061767 
     35 H10         9.561227    1.337854   15.738244 H         1 PHENYL      0.031328 
     36 H11         8.765817    2.918712   15.486156 H         1 PHENYL      0.031328 
     37 H12         8.240373    3.625719   13.145233 H         1 PHENYL      0.029664 
     38 H13         9.033709    2.862734   11.753104 H         1 PHENYL      0.029664 
     39 H14         5.222793   -0.024016   12.854564 H         1 PHENYL      0.062128 
     40 H15         4.240107   -0.839336   14.960864 H         1 PHENYL      0.061768 
     41 H16         5.333390   -0.309523   17.130601 H         1 PHENYL      0.061767 
     42 H17         7.461152    0.958980   17.153919 H         1 PHENYL      0.062038 
     43 H18         9.760645    0.957812   13.295819 H         1 PHENYL      0.026939 
     44 H19        10.469892    2.547326   13.710690 H         1 PHENYL      0.026939 
     45 H20        10.663229    1.379729    6.632012 H         3 PHENYL      0.062054 
@<TRIPOS>BOND
     1    2   16 1    
     2   16   17 ar   
     3    4    3 1    
     4    4    5 1    
     5    5    6 2    
     6    6    1 1    
     7    5    7 1    
     8    6    8 1    
     9    4    9 2    
    10   11   12 ar   
    11   11   30 ar   
    12   30   15 ar   
    13   15   14 ar   
    14   14   13 ar   
    15   13   12 ar   
    16    7   10 1    
    17   17   18 1    
    18   18   24 1    
    19    2   19 1    
    20   16   20 ar   
    21   20   21 ar   
    22   21   22 ar   
    23    3    2 1    
    24    1    2 1    
    25   23   22 ar   
    26   17   23 ar   
    27   19   24 1    
    28    1   25 1    
    29    1   26 1    
    30    8   27 1    
    31   10   28 1    
    32   10   29 1    
    33   10   11 1    
    34   12   31 1    
    35   13   32 1    
    36   14   33 1    
    37   15   34 1    
    38   18   35 1    
    39   18   36 1    
    40   19   37 1    
    41   19   38 1    
    42   20   39 1    
    43   21   40 1    
    44   22   41 1    
    45   23   42 1    
    46   24   43 1    
    47   24   44 1    
    48   30   45 1    
@<TRIPOS>SUBSTRUCTURE
     1 PHENYL      2 PERM              0 ****  ****    2  
     2 PHENYL     10 PERM              0 ****  ****    3 ROOT 
     3 PHENYL     11 PERM              0 ****  ****    1  
@<TRIPOS>NORMAL
@<TRIPOS>FF_PBC
FORCE_FIELD_SETUP_FEATURE Force Field Setup information
v1.0  0 0.000000 0.000000 0.000000 0.000000 0.000000 0.000000 NONE 0 0 0 0 1 0 0 0 0 0 0 0 0
