#	Name:			T18
#	Creating user name:	ccollar
#	Creation time:		Fri Jul 29 22:24:40 2005

#	Modifying user name:	ccollar
#	Modification time:	Fri Jul 29 23:08:04 2005

@<TRIPOS>MOLECULE
T18
   58    59     3     1     0
SMALL
GASTEIGER


@<TRIPOS>ATOM
      1 C1          7.540064    5.175875   13.552485 C.3       2 PHENYL      0.024682 
      2 C2          8.412289    3.927146   13.881134 C.3       1 PHENYL      0.085064 
      3 O3          9.348594    3.679552   12.808703 O.3       2 PHENYL     -0.303972 
      4 C4         10.056086    4.736333   12.382720 C.2       2 PHENYL      0.302877 
      5 C5          9.659006    6.122647   12.697626 C.2       2 PHENYL      0.105391 
      6 C6          8.449518    6.328123   13.236966 C.2       2 PHENYL      0.071806 
      7 S7         10.808387    7.445955   12.331847 S.3       2 PHENYL     -0.112562 
      8 O8          7.962534    7.542570   13.536788 O.3       2 PHENYL     -0.362729 
      9 O9         11.042505    4.532930   11.694894 O.2       2 PHENYL     -0.258559 
     10 C          11.984939    7.032593   13.658389 C.3       2 PHENYL      0.023660 
     11 C          13.125992    8.051342   13.563924 C.ar      3 PHENYL     -0.037218 
     12 C          13.095863    9.225120   14.325688 C.ar      3 PHENYL     -0.057776 
     13 C          14.147252   10.143474   14.248615 C.ar      3 PHENYL     -0.061476 
     14 C          15.232438    9.895515   13.403403 C.ar      3 PHENYL     -0.061741 
     15 C          15.261669    8.730212   12.632187 C.ar      3 PHENYL     -0.061476 
     16 C16         7.536949    2.629472   13.909724 C.3       1 PHENYL     -0.022765 
     17 C17        11.056698    3.383860   16.804015 C.3       1 PHENYL     -0.053216 
     18 C18        12.124889    2.296739   17.102887 C.3       1 PHENYL     -0.055910 
     19 C19         9.216734    4.167882   15.198711 C.3       1 PHENYL     -0.022765 
     20 C20        12.894806    2.608889   18.412494 C.3       1 PHENYL     -0.065276 
     21 C21         6.452718    2.491551   15.027184 C.3       1 PHENYL     -0.050433 
     22 C22         6.920379    1.715937   16.294179 C.3       1 PHENYL     -0.053216 
     23 C23         5.756347    1.533264   17.307538 C.3       1 PHENYL     -0.055910 
     24 C24        10.286192    3.076233   15.490350 C.3       1 PHENYL     -0.050433 
     25 C25         6.223260    0.764797   18.571765 C.3       1 PHENYL     -0.065276 
     26 H1          6.896237    5.008573   12.675920 H         2 PHENYL      0.036122 
     27 H2          6.907623    5.449214   14.409677 H         2 PHENYL      0.036122 
     28 H3          8.516631    8.289912   13.342195 H         2 PHENYL      0.216929 
     29 H4         12.370457    6.009700   13.528827 H         2 PHENYL      0.042841 
     30 C          14.209214    7.813289   12.710260 C.ar      3 PHENYL     -0.057776 
     31 H5         11.479835    7.094767   14.634393 H         2 PHENYL      0.042841 
     32 H6         12.254461    9.429978   14.979939 H         3 PHENYL      0.062054 
     33 H7         14.120782   11.050426   14.845289 H         3 PHENYL      0.061767 
     34 H8         16.050764   10.606958   13.345383 H         3 PHENYL      0.061758 
     35 H9         16.101930    8.537404   11.972022 H         3 PHENYL      0.061767 
     36 H10         8.181602    1.737956   13.921278 H         1 PHENYL      0.029318 
     37 H11         7.021022    2.606252   12.934825 H         1 PHENYL      0.029318 
     38 H12        10.342287    3.430168   17.642528 H         1 PHENYL      0.026521 
     39 H13        11.553487    4.364537   16.718313 H         1 PHENYL      0.026521 
     40 H14        12.842264    2.243899   16.266853 H         1 PHENYL      0.026265 
     41 H15        11.635164    1.313274   17.199516 H         1 PHENYL      0.026265 
     42 H16         8.517029    4.271343   16.039404 H         1 PHENYL      0.029318 
     43 H17         9.762696    5.120455   15.136706 H         1 PHENYL      0.029318 
     44 H18        13.644431    1.825654   18.607580 H         1 PHENYL      0.022978 
     45 H19        12.200328    2.649199   19.266139 H         1 PHENYL      0.022978 
     46 H20        13.413134    3.577169   18.332202 H         1 PHENYL      0.022978 
     47 H21         5.613594    1.907042   14.611601 H         1 PHENYL      0.026617 
     48 H22         6.049523    3.472117   15.316430 H         1 PHENYL      0.026617 
     49 H23         7.732096    2.244618   16.810557 H         1 PHENYL      0.026521 
     50 H24         7.294510    0.721527   15.999245 H         1 PHENYL      0.026521 
     51 H25         4.932751    0.973280   16.833718 H         1 PHENYL      0.026265 
     52 H26         5.371678    2.521874   17.609533 H         1 PHENYL      0.026265 
     53 H27        11.005065    3.035862   14.655627 H         1 PHENYL      0.026617 
     54 H28         9.822887    2.083888   15.584490 H         1 PHENYL      0.026617 
     55 H29         6.596730   -0.234334   18.297953 H         1 PHENYL      0.022978 
     56 H30         5.383161    0.644118   19.274046 H         1 PHENYL      0.022978 
     57 H31         7.028973    1.315443   19.082098 H         1 PHENYL      0.022978 
     58 H32        14.235885    6.914172   12.102456 H         3 PHENYL      0.062054 
@<TRIPOS>BOND
     1    2   16 1    
     2   24   17 1    
     3    4    3 1    
     4    4    5 1    
     5    5    6 2    
     6    6    1 1    
     7    5    7 1    
     8    6    8 1    
     9    4    9 2    
    10   11   12 ar   
    11   11   30 ar   
    12   30   15 ar   
    13   15   14 ar   
    14   14   13 ar   
    15   13   12 ar   
    16    7   10 1    
    17   17   18 1    
    18   18   20 1    
    19    2   19 1    
    20   16   21 1    
    21   21   22 1    
    22   22   23 1    
    23    3    2 1    
    24    1    2 1    
    25   23   25 1    
    26    1   26 1    
    27   19   24 1    
    28    1   27 1    
    29    8   28 1    
    30   10   29 1    
    31   10   31 1    
    32   12   32 1    
    33   10   11 1    
    34   13   33 1    
    35   14   34 1    
    36   15   35 1    
    37   16   36 1    
    38   16   37 1    
    39   17   38 1    
    40   17   39 1    
    41   18   40 1    
    42   18   41 1    
    43   19   42 1    
    44   19   43 1    
    45   20   44 1    
    46   20   45 1    
    47   20   46 1    
    48   21   47 1    
    49   21   48 1    
    50   22   49 1    
    51   22   50 1    
    52   23   51 1    
    53   23   52 1    
    54   24   53 1    
    55   24   54 1    
    56   25   55 1    
    57   25   56 1    
    58   25   57 1    
    59   30   58 1    
@<TRIPOS>SUBSTRUCTURE
     1 PHENYL      2 PERM              0 ****  ****    2  
     2 PHENYL     10 PERM              0 ****  ****    3 ROOT 
     3 PHENYL     11 PERM              0 ****  ****    1  
@<TRIPOS>NORMAL
@<TRIPOS>FF_PBC
FORCE_FIELD_SETUP_FEATURE Force Field Setup information
v1.0  0 0.000000 0.000000 0.000000 0.000000 0.000000 0.000000 NONE 0 0 0 0 1 0 0 0 0 0 0 0 0
