#	Name:			T20
#	Creating user name:	ccollar
#	Creation time:		Fri Jul 29 22:24:40 2005

#	Modifying user name:	ccollar
#	Modification time:	Fri Jul 29 23:15:13 2005

@<TRIPOS>MOLECULE
T20
   53    55     5     1     0
SMALL
GASTEIGER


@<TRIPOS>ATOM
      1 C1          8.184234    5.028596   13.152385 C.3       2 PHENYL      0.028566 
      2 C2          8.797335    3.604885   13.272104 C.3       1 PHENYL      0.106544 
      3 O3          9.322458    3.243253   11.976796 O.3       2 PHENYL     -0.299534 
      4 C4         10.195862    4.127444   11.470271 C.2       2 PHENYL      0.303167 
      5 C5         10.330343    5.485865   12.033041 C.2       2 PHENYL      0.105123 
      6 C6          9.336820    5.929930   12.815418 C.2       2 PHENYL      0.072120 
      7 S7         11.794039    6.439433   11.655448 S.3       2 PHENYL     -0.116944 
      8 O8          9.299430    7.156927   13.356942 O.3       2 PHENYL     -0.362719 
      9 O9         10.880581    3.793749   10.517930 O.2       2 PHENYL     -0.258548 
     10 C          12.814058    5.512800   12.850675 C.3       2 PHENYL      0.002239 
     11 C          14.241913    6.103366   12.900073 C.3       4 PHENYL     -0.022074 
     12 C          15.062607    5.303245   13.923842 C.ar      5 PHENYL     -0.068473 
     13 C          15.845254    4.221781   13.504562 C.ar      5 PHENYL     -0.062775 
     14 C          16.677069    3.584060   14.428067 C.ar      5 PHENYL     -0.065718 
     15 C          16.846240    4.157184   15.691757 C.ar      5 PHENYL     -0.083711 
     16 C           9.926693    3.545235   14.334306 C.ar      3 PHENYL     -0.033471 
     17 C          11.068773    2.770788   14.085956 C.ar      3 PHENYL     -0.059502 
     18 C          12.096780    2.677609   15.025948 C.ar      3 PHENYL     -0.061985 
     19 C          11.948038    3.281405   16.274234 C.ar      3 PHENYL     -0.065386 
     20 C          10.799405    4.025687   16.550589 C.ar      3 PHENYL     -0.079913 
     21 C           9.813403    4.278632   15.561478 C.3       3 PHENYL     -0.010230 
     22 C          16.297432    5.442708   15.957007 C.3       5 PHENYL     -0.030772 
     23 C          15.020022    5.621796   15.317646 C.3       5 PHENYL     -0.027981 
     24 C24         7.689134    2.572035   13.620316 C.3       1 PHENYL     -0.019109 
     25 C25         8.235876    1.122434   13.740785 C.3       1 PHENYL     -0.052968 
     26 C26         7.088815    0.108428   13.989433 C.3       1 PHENYL     -0.065177 
     27 H1          7.440302    5.074461   12.342277 H         2 PHENYL      0.036454 
     28 H2          7.699276    5.337828   14.090850 H         2 PHENYL      0.036454 
     29 H3         10.022836    7.737879   13.148290 H         2 PHENYL      0.216929 
     30 H4         12.863225    4.455267   12.545888 H         2 PHENYL      0.038279 
     31 H5         12.348452    5.576577   13.847715 H         2 PHENYL      0.038279 
     32 H6         14.198199    7.166945   13.182708 H         4 PHENYL      0.031807 
     33 H7         14.706054    6.041558   11.902717 H         4 PHENYL      0.031807 
     34 H8         15.807010    3.873041   12.477241 H         5 PHENYL      0.061708 
     35 H9         17.185882    2.660808   14.167664 H         5 PHENYL      0.061447 
     36 H10        17.411309    3.626363   16.453409 H         5 PHENYL      0.057213 
     37 H11        11.174980    2.220747   13.157092 H         3 PHENYL      0.061816 
     38 H12        13.005892    2.132005   14.790709 H         3 PHENYL      0.061749 
     39 H13        12.721830    3.170163   17.028093 H         3 PHENYL      0.061457 
     40 H14        10.668703    4.431202   17.550819 H         3 PHENYL      0.057521 
     41 H15         8.829153    4.071137   16.008160 H         3 PHENYL      0.035340 
     42 H16         9.884448    5.354476   15.345594 H         3 PHENYL      0.035340 
     43 H17        16.202811    5.591803   17.047372 H         5 PHENYL      0.031045 
     44 H18        17.018647    6.185783   15.575372 H         5 PHENYL      0.031045 
     45 H19        14.275091    4.946138   15.769284 H         5 PHENYL      0.031304 
     46 H20        14.667568    6.654794   15.476566 H         5 PHENYL      0.031304 
     47 H21         6.931328    2.599572   12.820836 H         1 PHENYL      0.029636 
     48 H22         7.197127    2.850576   14.565441 H         1 PHENYL      0.029636 
     49 H23         8.948693    1.053584   14.578685 H         1 PHENYL      0.026363 
     50 H24         8.763258    0.845705   12.812899 H         1 PHENYL      0.026363 
     51 H25         6.366694    0.130980   13.158162 H         1 PHENYL      0.022979 
     52 H26         6.559918    0.348407   14.925114 H         1 PHENYL      0.022979 
     53 H27         7.496730   -0.911686   14.069385 H         1 PHENYL      0.022979 
@<TRIPOS>BOND
     1   16   17 ar   
     2   16   21 ar   
     3    4    3 1    
     4    4    5 1    
     5    5    6 2    
     6    6    1 1    
     7    5    7 1    
     8    6    8 1    
     9    4    9 2    
    10   12   13 ar   
    11   12   23 ar   
    12   23   22 ar   
    13   22   15 ar   
    14   15   14 ar   
    15   14   13 ar   
    16    7   10 1    
    17   21   20 ar   
    18   20   19 ar   
    19   19   18 ar   
    20   18   17 ar   
    21    2   16 1    
    22   11   12 1    
    23    3    2 1    
    24    1    2 1    
    25    2   24 1    
    26   24   25 1    
    27   25   26 1    
    28    1   27 1    
    29    1   28 1    
    30    8   29 1    
    31   10   30 1    
    32   10   31 1    
    33   10   11 1    
    34   11   32 1    
    35   11   33 1    
    36   13   34 1    
    37   14   35 1    
    38   15   36 1    
    39   17   37 1    
    40   18   38 1    
    41   19   39 1    
    42   20   40 1    
    43   21   41 1    
    44   21   42 1    
    45   22   43 1    
    46   22   44 1    
    47   23   45 1    
    48   23   46 1    
    49   24   47 1    
    50   24   48 1    
    51   25   49 1    
    52   25   50 1    
    53   26   51 1    
    54   26   52 1    
    55   26   53 1    
@<TRIPOS>SUBSTRUCTURE
     1 PHENYL      2 PERM              0 ****  ****    3  
     2 PHENYL     10 PERM              0 ****  ****    3 ROOT 
     3 PHENYL     16 PERM              0 ****  ****    1  
     4 PHENYL     11 PERM              0 ****  ****    2  
     5 PHENYL     12 PERM              0 ****  ****    1  
@<TRIPOS>NORMAL
@<TRIPOS>FF_PBC
FORCE_FIELD_SETUP_FEATURE Force Field Setup information
v1.0  0 0.000000 0.000000 0.000000 0.000000 0.000000 0.000000 NONE 0 0 0 0 1 0 0 0 0 0 0 0 0
