#	Name:			T21
#	Creating user name:	ccollar
#	Creation time:		Fri Jul 29 22:24:40 2005

#	Modifying user name:	ccollar
#	Modification time:	Fri Jul 29 23:17:53 2005

@<TRIPOS>MOLECULE
T21
   56    58     5     1     0
SMALL
GASTEIGER


@<TRIPOS>ATOM
      1 C1          9.325409    4.635702   12.942381 C.3       2 PHENYL      0.028566 
      2 C2          9.559358    3.098180   13.007599 C.3       1 PHENYL      0.106552 
      3 O3          9.846038    2.638648   11.668795 O.3       2 PHENYL     -0.299534 
      4 C4         10.872431    3.274744   11.083008 C.2       2 PHENYL      0.303167 
      5 C5         11.396653    4.540743   11.628878 C.2       2 PHENYL      0.105123 
      6 C6         10.640328    5.224010   12.492179 C.2       2 PHENYL      0.072120 
      7 S7         13.015729    5.129679   11.164616 S.3       2 PHENYL     -0.116944 
      8 O8         11.047356    6.407747   12.970613 O.3       2 PHENYL     -0.362719 
      9 O9         11.365743    2.794841   10.076231 O.2       2 PHENYL     -0.258548 
     10 C          13.786679    4.157429   12.500309 C.3       2 PHENYL      0.002239 
     11 C          15.309405    4.404032   12.590501 C.3       4 PHENYL     -0.022074 
     12 C          15.835155    3.597097   13.788138 C.ar      5 PHENYL     -0.068473 
     13 C          16.047185    2.220705   13.650673 C.ar      5 PHENYL     -0.062775 
     14 C          16.552951    1.489245   14.727641 C.ar      5 PHENYL     -0.065718 
     15 C          17.038757    2.172899   15.844971 C.ar      5 PHENYL     -0.083711 
     16 C          10.736517    2.720607   13.946698 C.ar      3 PHENYL     -0.033471 
     17 C          11.594013    1.671754   13.586344 C.ar      3 PHENYL     -0.059502 
     18 C          12.708969    1.344041   14.360421 C.ar      3 PHENYL     -0.061985 
     19 C          12.957862    2.025159   15.551529 C.ar      3 PHENYL     -0.065386 
     20 C          12.084353    3.028745   15.975337 C.ar      3 PHENYL     -0.079913 
     21 C          10.957688    3.435779   15.192412 C.3       3 PHENYL     -0.010230 
     22 C          17.179560    3.598893   15.790489 C.3       5 PHENYL     -0.030772 
     23 C          16.074762    4.222237   15.070505 C.3       5 PHENYL     -0.027981 
     24 C24         8.261151    2.381399   13.475465 C.3       1 PHENYL     -0.018869 
     25 C25         8.415284    0.836677   13.547622 C.3       1 PHENYL     -0.050363 
     26 C26         7.073429    0.152020   13.925818 C.3       1 PHENYL     -0.055811 
     27 C27         7.230826   -1.388842   14.007501 C.3       1 PHENYL     -0.065275 
     28 H1          8.548048    4.885840   12.204161 H         2 PHENYL      0.036454 
     29 H2          9.001958    5.008422   13.926097 H         2 PHENYL      0.036454 
     30 H3         10.442738    6.841423   13.562494 H         2 PHENYL      0.216929 
     31 H4         13.598545    3.090586   12.305164 H         2 PHENYL      0.038279 
     32 H5         13.322105    4.434596   13.460361 H         2 PHENYL      0.038279 
     33 H6         15.500151    5.481411   12.714568 H         4 PHENYL      0.031807 
     34 H7         15.804426    4.075027   11.662953 H         4 PHENYL      0.031807 
     35 H8         15.812294    1.717083   12.718463 H         5 PHENYL      0.061708 
     36 H9         16.570280    0.404232   14.695541 H         5 PHENYL      0.061447 
     37 H10        17.325145    1.620387   16.735723 H         5 PHENYL      0.057213 
     38 H11        11.405362    1.087484   12.691774 H         3 PHENYL      0.061816 
     39 H12        13.383755    0.557060   14.036954 H         3 PHENYL      0.061749 
     40 H13        13.829056    1.771954   16.148593 H         3 PHENYL      0.061457 
     41 H14        12.273385    3.516175   16.928612 H         3 PHENYL      0.057521 
     42 H15        10.056222    3.328283   15.814514 H         3 PHENYL      0.035340 
     43 H16        11.121635    4.503233   14.989933 H         3 PHENYL      0.035340 
     44 H17        17.249715    4.010406   16.812468 H         5 PHENYL      0.031045 
     45 H18        18.131055    3.808827   15.273362 H         5 PHENYL      0.031045 
     46 H19        15.142412    4.119518   15.650055 H         5 PHENYL      0.031304 
     47 H20        16.278897    5.299382   14.952794 H         5 PHENYL      0.031304 
     48 H21         7.457716    2.624510   12.761549 H         1 PHENYL      0.029645 
     49 H22         7.963256    2.758286   14.466637 H         1 PHENYL      0.029645 
     50 H23         9.169632    0.571058   14.305538 H         1 PHENYL      0.026619 
     51 H24         8.753103    0.454511   12.570532 H         1 PHENYL      0.026619 
     52 H25         6.307676    0.394754   13.170136 H         1 PHENYL      0.026266 
     53 H26         6.727229    0.531014   14.901967 H         1 PHENYL      0.026266 
     54 H27         7.558838   -1.793408   13.037235 H         1 PHENYL      0.022978 
     55 H28         6.268886   -1.854765   14.273964 H         1 PHENYL      0.022978 
     56 H29         7.974639   -1.659656   14.773067 H         1 PHENYL      0.022978 
@<TRIPOS>BOND
     1   16   17 ar   
     2   16   21 ar   
     3    4    3 1    
     4    4    5 1    
     5    5    6 2    
     6    6    1 1    
     7    5    7 1    
     8    6    8 1    
     9    4    9 2    
    10   12   13 ar   
    11   12   23 ar   
    12   23   22 ar   
    13   22   15 ar   
    14   15   14 ar   
    15   14   13 ar   
    16    7   10 1    
    17   21   20 ar   
    18   20   19 ar   
    19   19   18 ar   
    20   18   17 ar   
    21    2   16 1    
    22   11   12 1    
    23    3    2 1    
    24    1    2 1    
    25    2   24 1    
    26   24   25 1    
    27   25   26 1    
    28   26   27 1    
    29    1   28 1    
    30    1   29 1    
    31    8   30 1    
    32   10   31 1    
    33   10   11 1    
    34   10   32 1    
    35   11   33 1    
    36   11   34 1    
    37   13   35 1    
    38   14   36 1    
    39   15   37 1    
    40   17   38 1    
    41   18   39 1    
    42   19   40 1    
    43   20   41 1    
    44   21   42 1    
    45   21   43 1    
    46   22   44 1    
    47   22   45 1    
    48   23   46 1    
    49   23   47 1    
    50   24   48 1    
    51   24   49 1    
    52   25   50 1    
    53   25   51 1    
    54   26   52 1    
    55   26   53 1    
    56   27   54 1    
    57   27   55 1    
    58   27   56 1    
@<TRIPOS>SUBSTRUCTURE
     1 PHENYL      2 PERM              0 ****  ****    3  
     2 PHENYL     10 PERM              0 ****  ****    3 ROOT 
     3 PHENYL     16 PERM              0 ****  ****    1  
     4 PHENYL     11 PERM              0 ****  ****    2  
     5 PHENYL     12 PERM              0 ****  ****    1  
@<TRIPOS>NORMAL
@<TRIPOS>FF_PBC
FORCE_FIELD_SETUP_FEATURE Force Field Setup information
v1.0  0 0.000000 0.000000 0.000000 0.000000 0.000000 0.000000 NONE 0 0 0 0 1 0 0 0 0 0 0 0 0
