#	Name:			T22
#	Creating user name:	ccollar
#	Creation time:		Fri Jul 29 22:24:40 2005

#	Modifying user name:	ccollar
#	Modification time:	Fri Jul 29 23:20:49 2005

@<TRIPOS>MOLECULE
T22
   59    61     5     1     0
SMALL
GASTEIGER


@<TRIPOS>ATOM
      1 C1          9.245123    4.669250   12.952426 C.3       2 PHENYL      0.028566 
      2 C2          9.505757    3.137293   13.004051 C.3       1 PHENYL      0.106552 
      3 O3          9.811876    2.704016   11.660924 O.3       2 PHENYL     -0.299534 
      4 C4         10.831110    3.366595   11.090204 C.2       2 PHENYL      0.303167 
      5 C5         11.340312    4.630813   11.658553 C.2       2 PHENYL      0.105123 
      6 C6         10.549557    5.277539   12.526313 C.2       2 PHENYL      0.072120 
      7 S7         12.967013    5.206776   11.189982 S.3       2 PHENYL     -0.116944 
      8 O8         10.855296    6.459551   13.083065 O.3       2 PHENYL     -0.362719 
      9 O9         11.332821    2.911062   10.076264 O.2       2 PHENYL     -0.258548 
     10 C          13.736193    4.212906   12.510906 C.3       2 PHENYL      0.002239 
     11 C          15.255210    4.475359   12.618684 C.3       4 PHENYL     -0.022074 
     12 C          15.779050    3.664661   13.814055 C.ar      5 PHENYL     -0.068473 
     13 C          16.001630    2.290566   13.671745 C.ar      5 PHENYL     -0.062775 
     14 C          16.504049    1.552304   14.745910 C.ar      5 PHENYL     -0.065718 
     15 C          16.983307    2.222171   15.874419 C.ar      5 PHENYL     -0.083711 
     16 C          10.682343    2.769157   13.946220 C.ar      3 PHENYL     -0.033471 
     17 C          11.557686    1.736231   13.583966 C.ar      3 PHENYL     -0.059502 
     18 C          12.670526    1.414757   14.363933 C.ar      3 PHENYL     -0.061985 
     19 C          12.907873    2.084756   15.563983 C.ar      3 PHENYL     -0.065386 
     20 C          12.026432    3.076514   15.999108 C.ar      3 PHENYL     -0.079913 
     21 C          10.888551    3.486050   15.214070 C.3       3 PHENYL     -0.010230 
     22 C          17.125298    3.658815   15.840527 C.3       5 PHENYL     -0.030772 
     23 C          16.009255    4.292828   15.113278 C.3       5 PHENYL     -0.027981 
     24 C24         8.216180    2.395692   13.455498 C.3       1 PHENYL     -0.018860 
     25 C25         8.393120    0.852766   13.511323 C.3       1 PHENYL     -0.050123 
     26 C26         7.059385    0.143733   13.874002 C.3       1 PHENYL     -0.053206 
     27 C27         7.237755   -1.397837   13.938106 C.3       1 PHENYL     -0.055910 
     28 C28         5.905352   -2.105151   14.298448 C.3       1 PHENYL     -0.065276 
     29 H1          8.469218    4.917863   12.212282 H         2 PHENYL      0.036454 
     30 H2          8.926329    5.051859   13.934029 H         2 PHENYL      0.036454 
     31 H3         11.676799    6.857633   12.818008 H         2 PHENYL      0.216929 
     32 H4         13.560208    3.148830   12.290797 H         2 PHENYL      0.038279 
     33 H5         13.262085    4.463483   13.473724 H         2 PHENYL      0.038279 
     34 H6         15.432806    5.553166   12.757342 H         4 PHENYL      0.031807 
     35 H7         15.763923    4.161973   11.693123 H         4 PHENYL      0.031807 
     36 H8         15.776486    1.792020   12.734392 H         5 PHENYL      0.061708 
     37 H9         16.524069    0.467675   14.702829 H         5 PHENYL      0.061447 
     38 H10        17.265104    1.658995   16.759810 H         5 PHENYL      0.057213 
     39 H11        11.384057    1.159145   12.681666 H         3 PHENYL      0.061816 
     40 H12        13.355397    0.638042   14.036755 H         3 PHENYL      0.061749 
     41 H13        13.779048    1.831261   16.160993 H         3 PHENYL      0.061457 
     42 H14        12.209919    3.555064   16.957754 H         3 PHENYL      0.057521 
     43 H15         9.985687    3.360881   15.830685 H         3 PHENYL      0.035340 
     44 H16        11.039793    4.557498   15.022587 H         3 PHENYL      0.035340 
     45 H17        17.186707    4.057898   16.867629 H         5 PHENYL      0.031045 
     46 H18        18.077911    3.878791   15.330261 H         5 PHENYL      0.031045 
     47 H19        15.075725    4.183907   15.689256 H         5 PHENYL      0.031304 
     48 H20        16.213118    5.370409   15.001676 H         5 PHENYL      0.031304 
     49 H21         7.413450    2.635004   12.739504 H         1 PHENYL      0.029645 
     50 H22         7.908040    2.758462   14.448861 H         1 PHENYL      0.029645 
     51 H23         9.147293    0.590560   14.270568 H         1 PHENYL      0.026627 
     52 H24         8.742789    0.487971   12.531777 H         1 PHENYL      0.026627 
     53 H25         6.296621    0.388614   13.116554 H         1 PHENYL      0.026521 
     54 H26         6.705296    0.509893   14.851817 H         1 PHENYL      0.026521 
     55 H27         7.996324   -1.651180   14.697524 H         1 PHENYL      0.026265 
     56 H28         7.590252   -1.769650   12.961451 H         1 PHENYL      0.026265 
     57 H29         5.136297   -1.884689   13.541753 H         1 PHENYL      0.022978 
     58 H30         5.542823   -1.764516   15.280880 H         1 PHENYL      0.022978 
     59 H31         6.053977   -3.195892   14.339038 H         1 PHENYL      0.022978 
@<TRIPOS>BOND
     1   16   17 ar   
     2   16   21 ar   
     3    4    3 1    
     4    4    5 1    
     5    5    6 2    
     6    6    1 1    
     7    5    7 1    
     8    6    8 1    
     9    4    9 2    
    10   12   13 ar   
    11   12   23 ar   
    12   23   22 ar   
    13   22   15 ar   
    14   15   14 ar   
    15   14   13 ar   
    16    7   10 1    
    17   21   20 ar   
    18   20   19 ar   
    19   19   18 ar   
    20   18   17 ar   
    21    2   16 1    
    22   11   12 1    
    23    3    2 1    
    24    1    2 1    
    25    2   24 1    
    26   24   25 1    
    27   25   26 1    
    28   26   27 1    
    29   27   28 1    
    30    1   29 1    
    31    1   30 1    
    32    8   31 1    
    33   10   11 1    
    34   10   32 1    
    35   10   33 1    
    36   11   34 1    
    37   11   35 1    
    38   13   36 1    
    39   14   37 1    
    40   15   38 1    
    41   17   39 1    
    42   18   40 1    
    43   19   41 1    
    44   20   42 1    
    45   21   43 1    
    46   21   44 1    
    47   22   45 1    
    48   22   46 1    
    49   23   47 1    
    50   23   48 1    
    51   24   49 1    
    52   24   50 1    
    53   25   51 1    
    54   25   52 1    
    55   26   53 1    
    56   26   54 1    
    57   27   55 1    
    58   27   56 1    
    59   28   57 1    
    60   28   58 1    
    61   28   59 1    
@<TRIPOS>SUBSTRUCTURE
     1 PHENYL      2 PERM              0 ****  ****    3  
     2 PHENYL     10 PERM              0 ****  ****    3 ROOT 
     3 PHENYL     16 PERM              0 ****  ****    1  
     4 PHENYL     11 PERM              0 ****  ****    2  
     5 PHENYL     12 PERM              0 ****  ****    1  
@<TRIPOS>NORMAL
@<TRIPOS>FF_PBC
FORCE_FIELD_SETUP_FEATURE Force Field Setup information
v1.0  0 0.000000 0.000000 0.000000 0.000000 0.000000 0.000000 NONE 0 0 0 0 1 0 0 0 0 0 0 0 0
