#	Name:			T23
#	Creating user name:	ccollar
#	Creation time:		Fri Jul 29 22:24:40 2005

#	Modifying user name:	ccollar
#	Modification time:	Fri Jul 29 23:22:37 2005

@<TRIPOS>MOLECULE
T23
   62    64     5     1     0
SMALL
GASTEIGER


@<TRIPOS>ATOM
      1 C1          9.438161    4.568893   12.948627 C.3       2 PHENYL      0.028566 
      2 C2          9.651623    3.029057   12.968520 C.3       1 PHENYL      0.106552 
      3 O3          9.938236    2.612556   11.615885 O.3       2 PHENYL     -0.299534 
      4 C4         10.974882    3.254629   11.053067 C.2       2 PHENYL      0.303167 
      5 C5         11.525214    4.491358   11.643299 C.2       2 PHENYL      0.105123 
      6 C6         10.758847    5.144879   12.527757 C.2       2 PHENYL      0.072120 
      7 S7         13.166523    5.026594   11.177337 S.3       2 PHENYL     -0.116944 
      8 O8         11.103541    6.305710   13.105922 O.3       2 PHENYL     -0.362719 
      9 O9         11.457961    2.803765   10.028054 O.2       2 PHENYL     -0.258548 
     10 C          13.911675    3.985987   12.475831 C.3       2 PHENYL      0.002239 
     11 C          15.438100    4.202443   12.580936 C.3       4 PHENYL     -0.022074 
     12 C          15.944027    3.355063   13.757993 C.ar      5 PHENYL     -0.068473 
     13 C          16.127886    1.978106   13.590973 C.ar      5 PHENYL     -0.062775 
     14 C          16.612783    1.202947   14.647280 C.ar      5 PHENYL     -0.065718 
     15 C          17.118883    1.828613   15.789421 C.ar      5 PHENYL     -0.083711 
     16 C          10.821066    2.608409   13.896650 C.ar      3 PHENYL     -0.033471 
     17 C          11.663868    1.556491   13.513312 C.ar      3 PHENYL     -0.059502 
     18 C          12.771413    1.188649   14.280489 C.ar      3 PHENYL     -0.061985 
     19 C          13.042780    1.828946   15.489797 C.ar      3 PHENYL     -0.065386 
     20 C          12.201178    2.841035   15.955763 C.ar      3 PHENYL     -0.079913 
     21 C          11.058201    3.303651   15.189981 C.3       3 PHENYL     -0.010230 
     22 C          17.310303    3.269081   15.791956 C.3       5 PHENYL     -0.030772 
     23 C          16.199760    3.960172   15.078343 C.3       5 PHENYL     -0.027981 
     24 C24         8.342907    2.318688   13.414682 C.3       1 PHENYL     -0.018860 
     25 C25         8.471276    0.770120   13.435948 C.3       1 PHENYL     -0.050115 
     26 C26         7.118404    0.096250   13.794937 C.3       1 PHENYL     -0.052966 
     27 C27         7.247624   -1.451443   13.825310 C.3       1 PHENYL     -0.053305 
     28 C28         5.894127   -2.125195   14.180517 C.3       1 PHENYL     -0.055911 
     29 C29         6.024326   -3.670354   14.211183 C.3       1 PHENYL     -0.065276 
     30 H1          8.666680    4.855894   12.217796 H         2 PHENYL      0.036454 
     31 H2          9.136060    4.941254   13.939397 H         2 PHENYL      0.036454 
     32 H3         11.935719    6.683463   12.844458 H         2 PHENYL      0.216929 
     33 H4         13.704019    2.931775   12.236650 H         2 PHENYL      0.038279 
     34 H5         13.449124    4.232041   13.445432 H         2 PHENYL      0.038279 
     35 H6         15.647778    5.271491   12.740733 H         4 PHENYL      0.031807 
     36 H7         15.933675    3.892861   11.647024 H         4 PHENYL      0.031807 
     37 H8         15.885184    1.504509   12.645094 H         5 PHENYL      0.061708 
     38 H9         16.598645    0.119460   14.579658 H         5 PHENYL      0.061447 
     39 H10        17.385497    1.234974   16.659353 H         5 PHENYL      0.057213 
     40 H11        11.467701    1.000207   12.602576 H         3 PHENYL      0.061816 
     41 H12        13.428255    0.395971   13.934576 H         3 PHENYL      0.061749 
     42 H13        13.911836    1.535755   16.071536 H         3 PHENYL      0.061457 
     43 H14        12.413492    3.296725   16.919416 H         3 PHENYL      0.057521 
     44 H15        10.158599    3.189012   15.813249 H         3 PHENYL      0.035340 
     45 H16        11.235813    4.374380   15.018332 H         3 PHENYL      0.035340 
     46 H17        17.387026    3.640858   16.827931 H         5 PHENYL      0.031045 
     47 H18        18.266164    3.472512   15.281427 H         5 PHENYL      0.031045 
     48 H19        15.267333    3.869592   15.658828 H         5 PHENYL      0.031304 
     49 H20        16.438420    5.032005   14.983922 H         5 PHENYL      0.031304 
     50 H21         7.542490    2.598671   12.710974 H         1 PHENYL      0.029645 
     51 H22         8.054743    2.669481   14.418318 H         1 PHENYL      0.029645 
     52 H23         9.222878    0.467890   14.182753 H         1 PHENYL      0.026627 
     53 H24         8.801293    0.415771   12.445790 H         1 PHENYL      0.026627 
     54 H25         6.358423    0.382011   13.049114 H         1 PHENYL      0.026530 
     55 H26         6.784017    0.453285   14.782998 H         1 PHENYL      0.026530 
     56 H27         8.004568   -1.740526   14.572966 H         1 PHENYL      0.026520 
     57 H28         7.583638   -1.808929   12.837976 H         1 PHENYL      0.026520 
     58 H29         5.133654   -1.842792   13.433362 H         1 PHENYL      0.026265 
     59 H30         5.554200   -1.772812   15.168733 H         1 PHENYL      0.026265 
     60 H31         5.054476   -4.127616   14.463661 H         1 PHENYL      0.022978 
     61 H32         6.763930   -3.978756   14.966506 H         1 PHENYL      0.022978 
     62 H33         6.344241   -4.048707   13.227738 H         1 PHENYL      0.022978 
@<TRIPOS>BOND
     1   16   17 ar   
     2   16   21 ar   
     3    4    3 1    
     4    4    5 1    
     5    5    6 2    
     6    6    1 1    
     7    5    7 1    
     8    6    8 1    
     9    4    9 2    
    10   12   13 ar   
    11   12   23 ar   
    12   23   22 ar   
    13   22   15 ar   
    14   15   14 ar   
    15   14   13 ar   
    16    7   10 1    
    17   21   20 ar   
    18   20   19 ar   
    19   19   18 ar   
    20   18   17 ar   
    21    2   16 1    
    22   11   12 1    
    23    3    2 1    
    24    1    2 1    
    25    2   24 1    
    26   24   25 1    
    27   25   26 1    
    28   26   27 1    
    29   27   28 1    
    30   28   29 1    
    31    1   30 1    
    32    1   31 1    
    33   10   11 1    
    34    8   32 1    
    35   10   33 1    
    36   10   34 1    
    37   11   35 1    
    38   11   36 1    
    39   13   37 1    
    40   14   38 1    
    41   15   39 1    
    42   17   40 1    
    43   18   41 1    
    44   19   42 1    
    45   20   43 1    
    46   21   44 1    
    47   21   45 1    
    48   22   46 1    
    49   22   47 1    
    50   23   48 1    
    51   23   49 1    
    52   24   50 1    
    53   24   51 1    
    54   25   52 1    
    55   25   53 1    
    56   26   54 1    
    57   26   55 1    
    58   27   56 1    
    59   27   57 1    
    60   28   58 1    
    61   28   59 1    
    62   29   60 1    
    63   29   61 1    
    64   29   62 1    
@<TRIPOS>SUBSTRUCTURE
     1 PHENYL      2 PERM              0 ****  ****    3  
     2 PHENYL     10 PERM              0 ****  ****    3 ROOT 
     3 PHENYL     16 PERM              0 ****  ****    1  
     4 PHENYL     11 PERM              0 ****  ****    2  
     5 PHENYL     12 PERM              0 ****  ****    1  
@<TRIPOS>NORMAL
@<TRIPOS>FF_PBC
FORCE_FIELD_SETUP_FEATURE Force Field Setup information
v1.0  0 0.000000 0.000000 0.000000 0.000000 0.000000 0.000000 NONE 0 0 0 0 1 0 0 0 0 0 0 0 0
