#	Name:			T24
#	Creating user name:	ccollar
#	Creation time:		Fri Jul 29 22:24:40 2005

#	Modifying user name:	ccollar
#	Modification time:	Fri Jul 29 23:24:51 2005

@<TRIPOS>MOLECULE
T24
   56    58     5     1     0
SMALL
GASTEIGER


@<TRIPOS>ATOM
      1 C1          9.669143    4.117327   11.708273 C.3       2 PHENYL      0.028575 
      2 C2          9.805769    2.662301   12.243573 C.3       1 PHENYL      0.106785 
      3 O3         10.149342    1.833356   11.113147 O.3       2 PHENYL     -0.299525 
      4 C4         11.246209    2.230550   10.447211 C.2       2 PHENYL      0.303167 
      5 C5         11.822873    3.574625   10.648265 C.2       2 PHENYL      0.105123 
      6 C6         11.037871    4.496079   11.223019 C.2       2 PHENYL      0.072120 
      7 S7         13.511304    3.890638   10.150687 S.3       2 PHENYL     -0.116944 
      8 O8         11.402253    5.771524   11.426141 O.3       2 PHENYL     -0.362719 
      9 O9         11.762586    1.460461    9.655016 O.2       2 PHENYL     -0.258548 
     10 C          14.134964    3.310607   11.762545 C.3       2 PHENYL      0.002239 
     11 C          15.655057    3.545820   11.910331 C.3       4 PHENYL     -0.022074 
     12 C          16.050903    3.120013   13.331814 C.ar      5 PHENYL     -0.068473 
     13 C          16.206635    1.762320   13.631623 C.ar      5 PHENYL     -0.062775 
     14 C          16.587710    1.363314   14.915301 C.ar      5 PHENYL     -0.065718 
     15 C          17.029635    2.314290   15.838668 C.ar      5 PHENYL     -0.083711 
     16 C          10.903149    2.556369   13.335710 C.ar      3 PHENYL     -0.033462 
     17 C          11.760057    1.448154   13.365244 C.ar      3 PHENYL     -0.059502 
     18 C          12.787046    1.335948   14.305340 C.ar      3 PHENYL     -0.061985 
     19 C          12.970796    2.310777   15.286236 C.ar      3 PHENYL     -0.065386 
     20 C          12.123548    3.418657   15.349523 C.ar      3 PHENYL     -0.079913 
     21 C          11.062646    3.635437   14.369967 C.3       3 PHENYL     -0.010230 
     22 C          17.272300    3.687298   15.400935 C.3       5 PHENYL     -0.030772 
     23 C          16.230247    4.127183   14.410963 C.3       5 PHENYL     -0.027981 
     24 C24         8.435743    2.194918   12.819757 C.3       1 PHENYL     -0.016522 
     25 C25         8.400852    0.767982   13.452674 C.3       1 PHENYL     -0.043781 
     26 C26         7.060198    0.570717   14.218073 C.3       1 PHENYL     -0.062565 
     27 C27         8.547567   -0.364939   12.396516 C.3       1 PHENYL     -0.062565 
     28 H1          8.958967    4.167508   10.868655 H         2 PHENYL      0.036454 
     29 H2          9.325856    4.806557   12.494823 H         2 PHENYL      0.036454 
     30 H3         12.265582    6.024029   11.118759 H         2 PHENYL      0.216929 
     31 H4         13.917305    2.235189   11.849556 H         2 PHENYL      0.038279 
     32 H5         13.611753    3.850105   12.568869 H         2 PHENYL      0.038279 
     33 H6         15.880918    4.609626   11.738179 H         4 PHENYL      0.031807 
     34 H7         16.209202    2.953167   11.165141 H         4 PHENYL      0.031807 
     35 H8         16.021341    1.011098   12.870522 H         5 PHENYL      0.061708 
     36 H9         16.542969    0.314927   15.193994 H         5 PHENYL      0.061447 
     37 H10        17.210405    2.025192   16.870104 H         5 PHENYL      0.057213 
     38 H11        11.642512    0.643764   12.648593 H         3 PHENYL      0.061816 
     39 H12        13.452343    0.478037   14.274749 H         3 PHENYL      0.061749 
     40 H13        13.777444    2.204465   16.005811 H         3 PHENYL      0.061457 
     41 H14        12.263256    4.141728   16.148758 H         3 PHENYL      0.057521 
     42 H15        10.112777    3.744733   14.914173 H         3 PHENYL      0.035340 
     43 H16        11.304882    4.590074   13.882331 H         3 PHENYL      0.035340 
     44 H17        17.284405    4.368171   16.268739 H         5 PHENYL      0.031045 
     45 H18        18.268270    3.710443   14.928926 H         5 PHENYL      0.031045 
     46 H19        15.256756    4.236573   14.915506 H         5 PHENYL      0.031304 
     47 H20        16.512320    5.108195   13.995792 H         5 PHENYL      0.031304 
     48 H21         7.680306    2.244187   12.019741 H         1 PHENYL      0.029896 
     49 H22         8.143527    2.919245   13.595980 H         1 PHENYL      0.029896 
     50 H23         9.214046    0.672799   14.192241 H         1 PHENYL      0.029648 
     51 H24         6.207826    0.660278   13.526996 H         1 PHENYL      0.023234 
     52 H25         6.947248    1.325252   15.012280 H         1 PHENYL      0.023234 
     53 H26         7.023224   -0.423276   14.690823 H         1 PHENYL      0.023234 
     54 H27         8.434069   -1.349784   12.875489 H         1 PHENYL      0.023234 
     55 H28         9.531727   -0.353039   11.911436 H         1 PHENYL      0.023234 
     56 H29         7.774290   -0.266985   11.619457 H         1 PHENYL      0.023234 
@<TRIPOS>BOND
     1   16   17 ar   
     2   16   21 ar   
     3    4    3 1    
     4    4    5 1    
     5    5    6 2    
     6    6    1 1    
     7    5    7 1    
     8    6    8 1    
     9    4    9 2    
    10   12   13 ar   
    11   12   23 ar   
    12   23   22 ar   
    13   22   15 ar   
    14   15   14 ar   
    15   14   13 ar   
    16    7   10 1    
    17   21   20 ar   
    18   20   19 ar   
    19   19   18 ar   
    20   18   17 ar   
    21    2   16 1    
    22   11   12 1    
    23    3    2 1    
    24    1    2 1    
    25    2   24 1    
    26   24   25 1    
    27   25   26 1    
    28   25   27 1    
    29    1   28 1    
    30    1   29 1    
    31    8   30 1    
    32   10   31 1    
    33   10   11 1    
    34   10   32 1    
    35   11   33 1    
    36   11   34 1    
    37   13   35 1    
    38   14   36 1    
    39   15   37 1    
    40   17   38 1    
    41   18   39 1    
    42   19   40 1    
    43   20   41 1    
    44   21   42 1    
    45   21   43 1    
    46   22   44 1    
    47   22   45 1    
    48   23   46 1    
    49   23   47 1    
    50   24   48 1    
    51   24   49 1    
    52   25   50 1    
    53   26   51 1    
    54   26   52 1    
    55   26   53 1    
    56   27   54 1    
    57   27   55 1    
    58   27   56 1    
@<TRIPOS>SUBSTRUCTURE
     1 PHENYL      2 PERM              0 ****  ****    3  
     2 PHENYL     10 PERM              0 ****  ****    3 ROOT 
     3 PHENYL     16 PERM              0 ****  ****    1  
     4 PHENYL     11 PERM              0 ****  ****    2  
     5 PHENYL     12 PERM              0 ****  ****    1  
@<TRIPOS>NORMAL
@<TRIPOS>FF_PBC
FORCE_FIELD_SETUP_FEATURE Force Field Setup information
v1.0  0 0.000000 0.000000 0.000000 0.000000 0.000000 0.000000 NONE 0 0 0 0 1 0 0 0 0 0 0 0 0
