#	Name:			T25
#	Creating user name:	ccollar
#	Creation time:		Fri Jul 29 22:24:40 2005

#	Modifying user name:	ccollar
#	Modification time:	Fri Jul 29 23:26:48 2005

@<TRIPOS>MOLECULE
T25
   59    61     5     1     0
SMALL
GASTEIGER


@<TRIPOS>ATOM
      1 C1          7.311111    5.023065   11.791994 C.3       2 PHENYL      0.028566 
      2 C2          8.012245    3.644112   11.946312 C.3       1 PHENYL      0.106561 
      3 O3          7.913081    2.961808   10.677472 O.3       2 PHENYL     -0.299534 
      4 C4          8.403396    3.659883    9.640233 C.2       2 PHENYL      0.303167 
      5 C5          8.688798    5.104435    9.752125 C.2       2 PHENYL      0.105123 
      6 C6          8.122903    5.766155   10.771230 C.2       2 PHENYL      0.072120 
      7 S7          9.777316    5.874976    8.560959 S.3       2 PHENYL     -0.116944 
      8 O8          8.249437    7.087086   10.970728 O.3       2 PHENYL     -0.362719 
      9 O9          8.604224    3.081081    8.585743 O.2       2 PHENYL     -0.258548 
     10 C          11.238034    5.434683    9.559279 C.3       2 PHENYL      0.002239 
     11 C          12.535549    6.038559    8.976595 C.3       4 PHENYL     -0.022074 
     12 C          13.679365    5.691477    9.940450 C.ar      5 PHENYL     -0.068473 
     13 C          14.243119    4.411220    9.918492 C.ar      5 PHENYL     -0.062775 
     14 C          15.301218    4.088285   10.772193 C.ar      5 PHENYL     -0.065718 
     15 C          15.952849    5.092033   11.493514 C.ar      5 PHENYL     -0.083711 
     16 C           9.504751    3.787476   12.340462 C.ar      3 PHENYL     -0.033471 
     17 C          10.455128    2.911537   11.799922 C.ar      3 PHENYL     -0.059502 
     18 C          11.818710    3.046720   12.071386 C.ar      3 PHENYL     -0.061985 
     19 C          12.286889    4.036112   12.936878 C.ar      3 PHENYL     -0.065386 
     20 C          11.398379    4.910819   13.565469 C.ar      3 PHENYL     -0.079913 
     21 C           9.953383    4.864789   13.310173 C.3       3 PHENYL     -0.010230 
     22 C          15.653550    6.502216   11.211228 C.3       5 PHENYL     -0.030772 
     23 C          14.175710    6.692764   10.938253 C.3       5 PHENYL     -0.027981 
     24 C24         7.271660    2.786471   13.010968 C.3       1 PHENYL     -0.018627 
     25 C25         7.913959    1.383940   13.207164 C.3       1 PHENYL     -0.047767 
     26 C26         7.065559    0.426684   14.098149 C.3       1 PHENYL     -0.046621 
     27 C27         6.865837    0.979211   15.537495 C.3       1 PHENYL     -0.062664 
     28 C28         7.744929   -0.970620   14.162876 C.3       1 PHENYL     -0.062664 
     29 H1          6.280042    4.907498   11.424347 H         2 PHENYL      0.036454 
     30 H2          7.281608    5.564475   12.749850 H         2 PHENYL      0.036454 
     31 H3          8.757150    7.570152   10.328486 H         2 PHENYL      0.216929 
     32 H4         11.321358    4.337398    9.586424 H         2 PHENYL      0.038279 
     33 H5         11.100179    5.809921   10.586367 H         2 PHENYL      0.038279 
     34 H6         12.421541    7.129031    8.875830 H         4 PHENYL      0.031807 
     35 H7         12.737548    5.621357    7.977213 H         4 PHENYL      0.031807 
     36 H8         13.852477    3.656645    9.243225 H         5 PHENYL      0.061708 
     37 H9         15.619441    3.055147   10.873152 H         5 PHENYL      0.061447 
     38 H10        16.691888    4.827140   12.244279 H         5 PHENYL      0.057213 
     39 H11        10.143830    2.099255   11.151432 H         3 PHENYL      0.061816 
     40 H12        12.527920    2.370897   11.602479 H         3 PHENYL      0.061749 
     41 H13        13.353108    4.124023   13.124349 H         3 PHENYL      0.061457 
     42 H14        11.790042    5.648431   14.260737 H         3 PHENYL      0.057521 
     43 H15         9.438138    4.705390   14.269213 H         3 PHENYL      0.035340 
     44 H16         9.687877    5.859017   12.924866 H         3 PHENYL      0.035340 
     45 H17        15.969292    7.137011   12.056063 H         5 PHENYL      0.031045 
     46 H18        16.236629    6.791827   10.321814 H         5 PHENYL      0.031045 
     47 H19        13.601003    6.539630   11.865677 H         5 PHENYL      0.031304 
     48 H20        13.997867    7.722859   10.590039 H         5 PHENYL      0.031304 
     49 H21         6.225998    2.659174   12.688253 H         1 PHENYL      0.029653 
     50 H22         7.277265    3.335689   13.964301 H         1 PHENYL      0.029653 
     51 H23         8.915047    1.494028   13.653685 H         1 PHENYL      0.026876 
     52 H24         8.030498    0.915942   12.216250 H         1 PHENYL      0.026876 
     53 H25         6.071453    0.297226   13.634397 H         1 PHENYL      0.029550 
     54 H26         7.838979    1.205050   15.999748 H         1 PHENYL      0.023233 
     55 H27         6.346700    0.236812   16.163349 H         1 PHENYL      0.023233 
     56 H28         6.253254    1.892643   15.534661 H         1 PHENYL      0.023233 
     57 H29         8.737535   -0.893216   14.632735 H         1 PHENYL      0.023233 
     58 H30         7.867710   -1.390402   13.152233 H         1 PHENYL      0.023233 
     59 H31         7.133687   -1.672700   14.751235 H         1 PHENYL      0.023233 
@<TRIPOS>BOND
     1   16   17 ar   
     2   16   21 ar   
     3    4    3 1    
     4    4    5 1    
     5    5    6 2    
     6    6    1 1    
     7    5    7 1    
     8    6    8 1    
     9    4    9 2    
    10   12   13 ar   
    11   12   23 ar   
    12   23   22 ar   
    13   22   15 ar   
    14   15   14 ar   
    15   14   13 ar   
    16    7   10 1    
    17   21   20 ar   
    18   20   19 ar   
    19   19   18 ar   
    20   18   17 ar   
    21    2   16 1    
    22   11   12 1    
    23    3    2 1    
    24    1    2 1    
    25    2   24 1    
    26   24   25 1    
    27   25   26 1    
    28   26   27 1    
    29   26   28 1    
    30    1   29 1    
    31    1   30 1    
    32    8   31 1    
    33   10   11 1    
    34   10   32 1    
    35   10   33 1    
    36   11   34 1    
    37   11   35 1    
    38   13   36 1    
    39   14   37 1    
    40   15   38 1    
    41   17   39 1    
    42   18   40 1    
    43   19   41 1    
    44   20   42 1    
    45   21   43 1    
    46   21   44 1    
    47   22   45 1    
    48   22   46 1    
    49   23   47 1    
    50   23   48 1    
    51   24   49 1    
    52   24   50 1    
    53   25   51 1    
    54   25   52 1    
    55   26   53 1    
    56   27   54 1    
    57   27   55 1    
    58   27   56 1    
    59   28   57 1    
    60   28   58 1    
    61   28   59 1    
@<TRIPOS>SUBSTRUCTURE
     1 PHENYL      2 PERM              0 ****  ****    3  
     2 PHENYL     10 PERM              0 ****  ****    3 ROOT 
     3 PHENYL     16 PERM              0 ****  ****    1  
     4 PHENYL     11 PERM              0 ****  ****    2  
     5 PHENYL     12 PERM              0 ****  ****    1  
@<TRIPOS>NORMAL
@<TRIPOS>FF_PBC
FORCE_FIELD_SETUP_FEATURE Force Field Setup information
v1.0  0 0.000000 0.000000 0.000000 0.000000 0.000000 0.000000 NONE 0 0 0 0 1 0 0 0 0 0 0 0 0
