#	Name:			T27
#	Creating user name:	ccollar
#	Creation time:		Fri Jul 29 22:24:40 2005

#	Modifying user name:	ccollar
#	Modification time:	Fri Jul 29 23:30:50 2005

@<TRIPOS>MOLECULE
T27
   60    63     5     1     0
SMALL
GASTEIGER


@<TRIPOS>ATOM
      1 C1          9.611532    2.341610    8.934640 C.3       2 PHENYL      0.028575 
      2 C2          9.836611    1.451207   10.189151 C.3       1 PHENYL      0.106802 
      3 O3          9.955901    0.086579    9.734831 O.3       2 PHENYL     -0.299524 
      4 C4         10.906538   -0.102430    8.804990 C.2       2 PHENYL      0.303167 
      5 C5         11.519035    1.034864    8.089052 C.2       2 PHENYL      0.105123 
      6 C6         10.866061    2.204944    8.122358 C.2       2 PHENYL      0.072120 
      7 S7         13.083843    0.805251    7.254343 S.3       2 PHENYL     -0.116944 
      8 O8         11.273466    3.310620    7.480339 O.3       2 PHENYL     -0.362719 
      9 O9         11.257138   -1.241884    8.548160 O.2       2 PHENYL     -0.258548 
     10 C          13.998853    1.192350    8.782941 C.3       2 PHENYL      0.002239 
     11 C          15.520268    1.293493    8.532526 C.3       4 PHENYL     -0.022074 
     12 C          16.176891    1.724899    9.851314 C.ar      5 PHENYL     -0.068473 
     13 C          16.385096    0.786144   10.867416 C.ar      5 PHENYL     -0.062775 
     14 C          17.000949    1.155409   12.066488 C.ar      5 PHENYL     -0.065718 
     15 C          17.622252    2.400812   12.191588 C.ar      5 PHENYL     -0.083711 
     16 C          11.120250    1.863357   10.955845 C.ar      3 PHENYL     -0.033462 
     17 C          11.958052    0.887101   11.509914 C.ar      3 PHENYL     -0.059502 
     18 C          13.146813    1.216164   12.166129 C.ar      3 PHENYL     -0.061985 
     19 C          13.542078    2.543533   12.338442 C.ar      3 PHENYL     -0.065386 
     20 C          12.752859    3.593676   11.865549 C.ar      3 PHENYL     -0.079913 
     21 C          11.496806    3.351338   11.117448 C.3       3 PHENYL     -0.010230 
     22 C          17.800659    3.259011   10.996041 C.3       5 PHENYL     -0.030772 
     23 C          16.567235    3.172778   10.086688 C.3       5 PHENYL     -0.027981 
     24 C24         8.601974    1.555638   11.129470 C.3       1 PHENYL     -0.016024 
     25 C25         8.672280    0.631849   12.379041 C.3       1 PHENYL     -0.038100 
     26 C26         8.584342   -0.890227   12.074833 C.3       1 PHENYL     -0.050109 
     27 C27         7.833745   -1.524819   13.281953 C.3       1 PHENYL     -0.052797 
     28 C28         7.590070   -0.363077   14.275917 C.3       1 PHENYL     -0.052797 
     29 C29         7.486293    0.864413   13.345387 C.3       1 PHENYL     -0.050109 
     30 H1          8.755151    1.986800    8.340948 H         2 PHENYL      0.036454 
     31 H2          9.429640    3.389775    9.216939 H         2 PHENYL      0.036454 
     32 H3         12.064326    3.235626    6.958337 H         2 PHENYL      0.216929 
     33 H4         13.797080    0.397062    9.516667 H         2 PHENYL      0.038279 
     34 H5         13.640648    2.153550    9.186416 H         2 PHENYL      0.038279 
     35 H6         15.714889    2.031020    7.738552 H         4 PHENYL      0.031807 
     36 H7         15.921475    0.321449    8.204291 H         4 PHENYL      0.031807 
     37 H8         16.056288   -0.239347   10.732216 H         5 PHENYL      0.061708 
     38 H9         16.999096    0.467794   12.906781 H         5 PHENYL      0.061447 
     39 H10        17.990889    2.727737   13.159562 H         5 PHENYL      0.057213 
     40 H11        11.695772   -0.162056   11.437816 H         3 PHENYL      0.061816 
     41 H12        13.779215    0.422019   12.552337 H         3 PHENYL      0.061749 
     42 H13        14.475650    2.761237   12.849216 H         3 PHENYL      0.061457 
     43 H14        13.071465    4.616354   12.047669 H         3 PHENYL      0.057521 
     44 H15        10.678442    3.870083   11.638226 H         3 PHENYL      0.035340 
     45 H16        11.642118    3.813826   10.131172 H         3 PHENYL      0.035340 
     46 H17        17.979305    4.304696   11.296562 H         5 PHENYL      0.031045 
     47 H18        18.687814    2.894076   10.453728 H         5 PHENYL      0.031045 
     48 H19        15.710866    3.668978   10.570149 H         5 PHENYL      0.031304 
     49 H20        16.775255    3.688944    9.136039 H         5 PHENYL      0.031304 
     50 H21         7.693770    1.308520   10.557577 H         1 PHENYL      0.029913 
     51 H22         8.505257    2.596584   11.475503 H         1 PHENYL      0.029913 
     52 H23         9.597321    0.840544   12.944035 H         1 PHENYL      0.030177 
     53 H24         9.584330   -1.333579   11.945986 H         1 PHENYL      0.026795 
     54 H25         8.011753   -1.067404   11.149351 H         1 PHENYL      0.026795 
     55 H26         8.396923   -2.348387   13.751712 H         1 PHENYL      0.026537 
     56 H27         6.857509   -1.920024   12.951686 H         1 PHENYL      0.026537 
     57 H28         8.463624   -0.246761   14.939916 H         1 PHENYL      0.026537 
     58 H29         6.690957   -0.506321   14.897810 H         1 PHENYL      0.026537 
     59 H30         7.558455    1.818799   13.892520 H         1 PHENYL      0.026795 
     60 H31         6.530227    0.835769   12.796549 H         1 PHENYL      0.026795 
@<TRIPOS>BOND
     1   16   17 ar   
     2   16   21 ar   
     3    4    3 1    
     4    4    5 1    
     5    5    6 2    
     6    6    1 1    
     7    5    7 1    
     8    6    8 1    
     9    4    9 2    
    10   12   13 ar   
    11   12   23 ar   
    12   23   22 ar   
    13   22   15 ar   
    14   15   14 ar   
    15   14   13 ar   
    16    7   10 1    
    17   21   20 ar   
    18   20   19 ar   
    19   19   18 ar   
    20   18   17 ar   
    21    2   16 1    
    22   11   12 1    
    23    3    2 1    
    24    1    2 1    
    25    2   24 1    
    26   24   25 1    
    27   25   26 1    
    28   26   27 1    
    29   27   28 1    
    30   28   29 1    
    31   25   29 1    
    32    1   30 1    
    33   10   11 1    
    34    1   31 1    
    35    8   32 1    
    36   10   33 1    
    37   10   34 1    
    38   11   35 1    
    39   11   36 1    
    40   13   37 1    
    41   14   38 1    
    42   15   39 1    
    43   17   40 1    
    44   18   41 1    
    45   19   42 1    
    46   20   43 1    
    47   21   44 1    
    48   21   45 1    
    49   22   46 1    
    50   22   47 1    
    51   23   48 1    
    52   23   49 1    
    53   24   50 1    
    54   24   51 1    
    55   25   52 1    
    56   26   53 1    
    57   26   54 1    
    58   27   55 1    
    59   27   56 1    
    60   28   57 1    
    61   28   58 1    
    62   29   59 1    
    63   29   60 1    
@<TRIPOS>SUBSTRUCTURE
     1 PHENYL      2 PERM              0 ****  ****    3  
     2 PHENYL     10 PERM              0 ****  ****    3 ROOT 
     3 PHENYL     16 PERM              0 ****  ****    1  
     4 PHENYL     11 PERM              0 ****  ****    2  
     5 PHENYL     12 PERM              0 ****  ****    1  
@<TRIPOS>NORMAL
@<TRIPOS>FF_PBC
FORCE_FIELD_SETUP_FEATURE Force Field Setup information
v1.0  0 0.000000 0.000000 0.000000 0.000000 0.000000 0.000000 NONE 0 0 0 0 1 0 0 0 0 0 0 0 0
