#	Name:			T29
#	Creating user name:	ccollar
#	Creation time:		Fri Jul 29 22:24:40 2005

#	Modifying user name:	ccollar
#	Modification time:	Fri Jul 29 23:35:40 2005

@<TRIPOS>MOLECULE
T29
   60    63     7     1     0
SMALL
GASTEIGER


@<TRIPOS>ATOM
      1 C1          9.612371    2.769554    8.919027 C.3       2 PHENYL      0.028576 
      2 C2          9.797434    2.164148   10.340156 C.3       1 PHENYL      0.106848 
      3 O3          9.802967    0.725198   10.209816 O.3       2 PHENYL     -0.299523 
      4 C4         10.711704    0.247711    9.348498 C.2       2 PHENYL      0.303167 
      5 C5         11.365136    1.123566    8.358307 C.2       2 PHENYL      0.105123 
      6 C6         10.800328    2.314929    8.117962 C.2       2 PHENYL      0.072120 
      7 S7         12.866130    0.556195    7.569954 S.3       2 PHENYL     -0.116944 
      8 O8         11.248544    3.181570    7.196389 O.3       2 PHENYL     -0.362719 
      9 O9         10.984863   -0.940375    9.383501 O.2       2 PHENYL     -0.258548 
     10 C          13.871105    1.160744    8.967040 C.3       2 PHENYL      0.002239 
     11 C          15.368175    0.828485    8.777990 C.3       4 PHENYL     -0.022074 
     12 C          16.129803    1.413045    9.975322 C.ar      5 PHENYL     -0.068473 
     13 C          16.135421    0.736352   11.199741 C.ar      5 PHENYL     -0.062775 
     14 C          16.860106    1.226328   12.290085 C.ar      5 PHENYL     -0.065718 
     15 C          17.770704    2.274791   12.132894 C.ar      5 PHENYL     -0.083711 
     16 C          11.132411    2.587539   11.002047 C.ar      3 PHENYL     -0.033461 
     17 C          11.727280    1.726572   11.931579 C.ar      3 PHENYL     -0.059502 
     18 C          12.994501    1.974453   12.465638 C.ar      3 PHENYL     -0.061985 
     19 C          13.723153    3.117284   12.130196 C.ar      3 PHENYL     -0.065386 
     20 C          13.197007    4.085754   11.272944 C.ar      3 PHENYL     -0.079913 
     21 C          11.839429    3.945888   10.663958 C.3       3 PHENYL     -0.010230 
     22 C          18.118832    2.762556   10.764069 C.3       5 PHENYL     -0.030772 
     23 C          16.858513    2.758641    9.859913 C.3       5 PHENYL     -0.027981 
     24 C           8.599523    2.469253   11.287626 C.3       6 PHENYL     -0.014877 
     25 C1          8.521812    3.932219   11.805060 C.3       7 BENZYL     -0.024738 
     26 C2          7.255053    4.289324   12.607075 C.ar      7 BENZYL     -0.047254 
     27 C3          6.350612    3.335834   13.095097 C.ar      7 BENZYL     -0.058571 
     28 C4          5.209663    3.732224   13.799825 C.ar      7 BENZYL     -0.061501 
     29 C5          4.962277    5.086798   14.035083 C.ar      7 BENZYL     -0.061742 
     30 C6          5.863825    6.044385   13.565070 C.ar      7 BENZYL     -0.061501 
     31 C7          7.002097    5.643733   12.859687 C.ar      7 BENZYL     -0.058571 
     32 H1          8.691775    2.399629    8.442834 H         2 PHENYL      0.036454 
     33 H2          9.576016    3.867656    8.950178 H         2 PHENYL      0.036454 
     34 H3         11.996546    2.905488    6.678645 H         2 PHENYL      0.216929 
     35 H4         13.509237    0.696152    9.897789 H         2 PHENYL      0.038279 
     36 H5         13.750279    2.252556    9.043139 H         2 PHENYL      0.038279 
     37 H6         15.728887    1.263789    7.833214 H         4 PHENYL      0.031807 
     38 H7         15.514185   -0.262449    8.731314 H         4 PHENYL      0.031807 
     39 H8         15.561509   -0.177951   11.312879 H         5 PHENYL      0.061708 
     40 H9         16.715729    0.784546   13.271415 H         5 PHENYL      0.061447 
     41 H10        18.239338    2.720305   13.005516 H         5 PHENYL      0.057213 
     42 H11        11.200238    0.833352   12.252104 H         3 PHENYL      0.061816 
     43 H12        13.426888    1.258606   13.158681 H         3 PHENYL      0.061749 
     44 H13        14.716961    3.256371   12.545688 H         3 PHENYL      0.061457 
     45 H14        13.790993    4.966212   11.043838 H         3 PHENYL      0.057521 
     46 H15        11.221648    4.781306   11.021116 H         3 PHENYL      0.035340 
     47 H16        11.981178    4.062332    9.582082 H         3 PHENYL      0.035340 
     48 H17        18.548029    3.776687   10.813805 H         5 PHENYL      0.031045 
     49 H18        18.876181    2.079604   10.347105 H         5 PHENYL      0.031045 
     50 H19        16.159291    3.542609   10.190609 H         5 PHENYL      0.031304 
     51 H20        17.149832    2.967139    8.818445 H         5 PHENYL      0.031304 
     52 H21         8.695770    1.803376   12.160654 H         6 PHENYL      0.029960 
     53 H22         7.668796    2.214473   10.756105 H         6 PHENYL      0.029960 
     54 H23         9.378267    4.134175   12.466647 H         7 BENZYL      0.031417 
     55 H24         8.565503    4.620802   10.948902 H         7 BENZYL      0.031417 
     56 H25         6.511150    2.275844   12.942058 H         7 BENZYL      0.062029 
     57 H26         4.512115    2.985196   14.166928 H         7 BENZYL      0.061766 
     58 H27         4.074906    5.393484   14.580491 H         7 BENZYL      0.061758 
     59 H28         5.680044    7.098819   13.748024 H         7 BENZYL      0.061766 
     60 H29         7.696590    6.399728   12.506331 H         7 BENZYL      0.062029 
@<TRIPOS>BOND
     1   16   17 ar   
     2   16   21 ar   
     3    4    3 1    
     4    4    5 1    
     5    5    6 2    
     6    6    1 1    
     7    5    7 1    
     8    6    8 1    
     9    4    9 2    
    10   12   13 ar   
    11   12   23 ar   
    12   23   22 ar   
    13   22   15 ar   
    14   15   14 ar   
    15   14   13 ar   
    16    7   10 1    
    17   21   20 ar   
    18   20   19 ar   
    19   19   18 ar   
    20   18   17 ar   
    21    2   16 1    
    22   11   12 1    
    23    3    2 1    
    24    1    2 1    
    25   25   26 1    
    26   26   27 ar   
    27   26   31 ar   
    28   31   30 ar   
    29   30   29 ar   
    30   29   28 ar   
    31    2   24 1    
    32   28   27 ar   
    33   10   11 1    
    34   24   25 1    
    35    1   32 1    
    36    1   33 1    
    37    8   34 1    
    38   10   35 1    
    39   10   36 1    
    40   11   37 1    
    41   11   38 1    
    42   13   39 1    
    43   14   40 1    
    44   15   41 1    
    45   17   42 1    
    46   18   43 1    
    47   19   44 1    
    48   20   45 1    
    49   21   46 1    
    50   21   47 1    
    51   22   48 1    
    52   22   49 1    
    53   23   50 1    
    54   23   51 1    
    55   24   52 1    
    56   24   53 1    
    57   25   54 1    
    58   25   55 1    
    59   27   56 1    
    60   28   57 1    
    61   29   58 1    
    62   30   59 1    
    63   31   60 1    
@<TRIPOS>SUBSTRUCTURE
     1 PHENYL      2 PERM              0 ****  ****    4  
     2 PHENYL     10 PERM              0 ****  ****    3 ROOT 
     3 PHENYL     16 PERM              0 ****  ****    1  
     4 PHENYL     11 PERM              0 ****  ****    2  
     5 PHENYL     12 PERM              0 ****  ****    1  
     6 PHENYL     24 PERM              0 ****  ****    2  
     7 BENZYL     25 PERM              0 ****  ****    1  
@<TRIPOS>NORMAL
@<TRIPOS>FF_PBC
FORCE_FIELD_SETUP_FEATURE Force Field Setup information
v1.0  0 0.000000 0.000000 0.000000 0.000000 0.000000 0.000000 NONE 0 0 0 0 1 0 0 0 0 0 0 0 0
