#	Name:			T30
#	Creating user name:	ccollar
#	Creation time:		Fri Jul 29 22:24:40 2005

#	Modifying user name:	ccollar
#	Modification time:	Fri Jul 29 23:38:29 2005

@<TRIPOS>MOLECULE
T30
   50    53     4     1     0
SMALL
GASTEIGER


@<TRIPOS>ATOM
      1 C1          9.740299    3.237090    9.109148 C.3       2 PHENYL      0.028863 
      2 C2          9.137211    2.302697   10.195669 C.3       1 PHENYL      0.110140 
      3 O3         10.155637    1.849970   11.112282 O.3       2 PHENYL     -0.299218 
      4 C4         11.275431    1.375075   10.542968 C.2       2 PHENYL      0.303176 
      5 C5         11.575502    1.584865    9.110587 C.2       2 PHENYL      0.105123 
      6 C6         10.842391    2.478579    8.431026 C.2       2 PHENYL      0.072130 
      7 S7         12.909736    0.648230    8.370250 S.3       2 PHENYL     -0.116944 
      8 O8         11.029196    2.769596    7.134386 O.3       2 PHENYL     -0.362719 
      9 O9         12.070516    0.770305   11.242708 O.2       2 PHENYL     -0.258548 
     10 C          14.223469    1.812201    8.860238 C.3       2 PHENYL      0.002239 
     11 C          15.577116    1.294495    8.319277 C.3       3 PHENYL     -0.022074 
     12 C          16.691010    2.268124    8.724581 C.ar      4 PHENYL     -0.068473 
     13 C          17.441771    2.052843    9.885121 C.ar      4 PHENYL     -0.062775 
     14 C          18.547085    2.854923   10.185714 C.ar      4 PHENYL     -0.065718 
     15 C          19.058060    3.760204    9.250831 C.ar      4 PHENYL     -0.083711 
     16 C16         8.139065    3.074145   11.085468 C.ar      1 PHENYL     -0.011709 
     17 C17         6.812194    2.657382   11.268205 C.ar      1 PHENYL     -0.041430 
     18 C18         6.323390    1.287889   10.787341 C.3       1 PHENYL     -0.027230 
     19 C19         7.517983    0.351644   10.493249 C.3       1 PHENYL     -0.046100 
     20 C20         8.469160    1.070500    9.510877 C.3       1 PHENYL     -0.018266 
     21 C21         8.572362    4.228029   11.751907 C.ar      1 PHENYL     -0.055558 
     22 C          18.520674    3.782923    7.850346 C.3       4 PHENYL     -0.030772 
     23 C          16.985842    3.516495    7.869743 C.3       4 PHENYL     -0.027981 
     24 C24         7.666700    5.055948   12.420430 C.ar      1 PHENYL     -0.061394 
     25 C25         6.317801    4.701578   12.481775 C.ar      1 PHENYL     -0.061483 
     26 C26         5.897970    3.494915   11.917716 C.ar      1 PHENYL     -0.058224 
     27 H1          8.962312    3.537103    8.389965 H         2 PHENYL      0.036464 
     28 H2         10.192719    4.148287    9.523341 H         2 PHENYL      0.036464 
     29 H3         11.720396    2.299627    6.681868 H         2 PHENYL      0.216929 
     30 H4         14.259134    1.884444    9.958881 H         2 PHENYL      0.038279 
     31 H5         14.003410    2.807335    8.441904 H         2 PHENYL      0.038279 
     32 H6         15.535895    1.213032    7.221777 H         3 PHENYL      0.031807 
     33 H7         15.782814    0.290547    8.724077 H         3 PHENYL      0.031807 
     34 H8         17.162249    1.257146   10.568452 H         4 PHENYL      0.061708 
     35 H9         19.019443    2.770071   11.159835 H         4 PHENYL      0.061447 
     36 H10        19.859265    4.436052    9.535272 H         4 PHENYL      0.057213 
     37 H11         5.715595    1.439183    9.880902 H         1 PHENYL      0.031328 
     38 H12         5.687051    0.825013   11.559379 H         1 PHENYL      0.031328 
     39 H13         7.146654   -0.589083   10.052338 H         1 PHENYL      0.026939 
     40 H14         8.057240    0.110551   11.424560 H         1 PHENYL      0.026939 
     41 H15         7.882643    1.385174    8.632628 H         1 PHENYL      0.029664 
     42 H16         9.225270    0.350999    9.160341 H         1 PHENYL      0.029664 
     43 H17         9.624241    4.492132   11.764358 H         1 PHENYL      0.062128 
     44 H18        18.732021    4.753313    7.372221 H         4 PHENYL      0.031045 
     45 H19        19.028099    2.989293    7.279102 H         4 PHENYL      0.031045 
     46 H20        16.465021    4.369345    8.333033 H         4 PHENYL      0.031304 
     47 H21        16.611899    3.394079    6.841041 H         4 PHENYL      0.031304 
     48 H22         8.010171    5.971730   12.892152 H         1 PHENYL      0.061768 
     49 H23         5.601933    5.356735   12.968958 H         1 PHENYL      0.061767 
     50 H24         4.853439    3.207967   11.989268 H         1 PHENYL      0.062038 
@<TRIPOS>BOND
     1    2   16 1    
     2   16   17 ar   
     3    4    3 1    
     4    4    5 1    
     5    5    6 2    
     6    6    1 1    
     7    5    7 1    
     8    6    8 1    
     9    4    9 2    
    10   12   13 ar   
    11   12   23 ar   
    12   23   22 ar   
    13   22   15 ar   
    14   15   14 ar   
    15   14   13 ar   
    16    7   10 1    
    17   17   18 1    
    18   18   19 1    
    19   19   20 1    
    20    2   20 1    
    21   16   21 ar   
    22   11   12 1    
    23    3    2 1    
    24    1    2 1    
    25   21   24 ar   
    26   24   25 ar   
    27   25   26 ar   
    28   17   26 ar   
    29    1   27 1    
    30    1   28 1    
    31    8   29 1    
    32   10   30 1    
    33   10   11 1    
    34   10   31 1    
    35   11   32 1    
    36   11   33 1    
    37   13   34 1    
    38   14   35 1    
    39   15   36 1    
    40   18   37 1    
    41   18   38 1    
    42   19   39 1    
    43   19   40 1    
    44   20   41 1    
    45   20   42 1    
    46   21   43 1    
    47   22   44 1    
    48   22   45 1    
    49   23   46 1    
    50   23   47 1    
    51   24   48 1    
    52   25   49 1    
    53   26   50 1    
@<TRIPOS>SUBSTRUCTURE
     1 PHENYL      2 PERM              0 ****  ****    2  
     2 PHENYL     10 PERM              0 ****  ****    3 ROOT 
     3 PHENYL     11 PERM              0 ****  ****    2  
     4 PHENYL     12 PERM              0 ****  ****    1  
@<TRIPOS>NORMAL
@<TRIPOS>FF_PBC
FORCE_FIELD_SETUP_FEATURE Force Field Setup information
v1.0  0 0.000000 0.000000 0.000000 0.000000 0.000000 0.000000 NONE 0 0 0 0 1 0 0 0 0 0 0 0 0
