#	Name:			T31
#	Creating user name:	ccollar
#	Creation time:		Fri Jul 29 22:24:40 2005

#	Modifying user name:	ccollar
#	Modification time:	Fri Jul 29 23:42:07 2005

@<TRIPOS>MOLECULE
T31
   55    57     5     1     0
SMALL
GASTEIGER


@<TRIPOS>ATOM
      1 C1          8.125684    4.112571    9.396016 C.3       2 PHENYL      0.028847 
      2 C2          7.768685    3.314373   10.681673 C.3       1 PHENYL      0.109771 
      3 O3          8.886546    3.251554   11.596500 O.3       2 PHENYL     -0.299235 
      4 C4         10.100584    3.013155   11.080176 C.2       2 PHENYL      0.303176 
      5 C5         10.379153    3.124803    9.636693 C.2       2 PHENYL      0.105123 
      6 C6          9.442890    3.660288    8.843606 C.2       2 PHENYL      0.072130 
      7 S7         11.962544    2.551509    9.028827 S.3       2 PHENYL     -0.116944 
      8 O8          9.596386    3.836215    7.521719 O.3       2 PHENYL     -0.362719 
      9 O9         11.002717    2.714358   11.844478 O.2       2 PHENYL     -0.258548 
     10 C          12.853282    4.098068    9.396387 C.3       2 PHENYL      0.002239 
     11 C          14.322054    3.950243    8.934147 C.3       4 PHENYL     -0.022074 
     12 C          15.081213    5.248259    9.236303 C.ar      5 PHENYL     -0.068473 
     13 C          15.827959    5.385212   10.411219 C.ar      5 PHENYL     -0.062775 
     14 C          16.634019    6.507492   10.626670 C.ar      5 PHENYL     -0.065718 
     15 C          16.880838    7.429441    9.605019 C.ar      5 PHENYL     -0.083711 
     16 C           6.630024    4.057994   11.425648 C.ar      3 PHENYL     -0.022705 
     17 C           5.449429    4.425932   10.765072 C.ar      3 PHENYL     -0.078362 
     18 C           4.445805    5.153151   11.433715 C.3       3 PHENYL     -0.033855 
     19 C           4.437214    4.877537   12.824878 C.3       3 PHENYL     -0.046139 
     20 C           5.700901    5.115228   13.423183 C.3       3 PHENYL     -0.033855 
     21 C           6.725685    4.389761   12.784836 C.ar      3 PHENYL     -0.078362 
     22 C          16.403078    7.154598    8.203700 C.3       5 PHENYL     -0.030772 
     23 C          15.012257    6.440874    8.252116 C.3       5 PHENYL     -0.027981 
     24 C24         7.239205    1.872125   10.398656 C.3       1 PHENYL     -0.009613 
     25 C25         8.215426    0.883466    9.702647 C.3       1 PHENYL      0.035950 
     26 C26         7.597193   -0.477005    9.505128 C.2       1 PHENYL      0.259692 
     27 O27         6.455758   -0.735213    9.854334 O.2       1 PHENYL     -0.265176 
     28 O28         8.386170   -1.380147    8.919741 O.3       1 PHENYL     -0.331266 
     29 H1          7.356733    3.977776    8.621278 H         2 PHENYL      0.036464 
     30 H2          8.214649    5.185738    9.624995 H         2 PHENYL      0.036464 
     31 H3         10.421041    3.558462    7.139247 H         2 PHENYL      0.216929 
     32 H4         12.817012    4.295011   10.479635 H         2 PHENYL      0.038279 
     33 H5         12.369739    4.932182    8.863276 H         2 PHENYL      0.038279 
     34 H6         14.356351    3.744835    7.852713 H         4 PHENYL      0.031807 
     35 H7         14.794531    3.101240    9.453769 H         4 PHENYL      0.031807 
     36 H8         15.779125    4.613996   11.173536 H         5 PHENYL      0.061708 
     37 H9         17.080454    6.663536   11.604235 H         5 PHENYL      0.061447 
     38 H10        17.435152    8.338383    9.819715 H         5 PHENYL      0.057213 
     39 H11         5.295495    4.163933    9.723540 H         3 PHENYL      0.057553 
     40 H12         4.635468    6.223446   11.241958 H         3 PHENYL      0.030760 
     41 H13         3.461180    4.908712   10.994967 H         3 PHENYL      0.030760 
     42 H14         3.668559    5.499135   13.321724 H         3 PHENYL      0.027116 
     43 H15         4.149609    3.820787   12.986291 H         3 PHENYL      0.027116 
     44 H16         5.973082    6.183317   13.365214 H         3 PHENYL      0.030760 
     45 H17         5.669071    4.840594   14.493355 H         3 PHENYL      0.030760 
     46 H18         7.597441    4.101939   13.364984 H         3 PHENYL      0.057553 
     47 H19        16.329212    8.092938    7.630330 H         5 PHENYL      0.031045 
     48 H20        17.140494    6.497938    7.715347 H         5 PHENYL      0.031045 
     49 H21        14.247375    7.139754    8.625762 H         5 PHENYL      0.031304 
     50 H22        14.722819    6.109677    7.242430 H         5 PHENYL      0.031304 
     51 H23         6.330776    1.930911    9.778651 H         1 PHENYL      0.030135 
     52 H24         6.955572    1.432890   11.369582 H         1 PHENYL      0.030135 
     53 H25         9.121410    0.734418   10.307740 H         1 PHENYL      0.036703 
     54 H26         8.497453    1.249728    8.704921 H         1 PHENYL      0.036703 
     55 H27         7.949284   -2.219113    8.820081 H         1 PHENYL      0.220208 
@<TRIPOS>BOND
     1   16   17 ar   
     2   16   21 ar   
     3    4    3 1    
     4    4    5 1    
     5    5    6 2    
     6    6    1 1    
     7    5    7 1    
     8    6    8 1    
     9    4    9 2    
    10   12   13 ar   
    11   12   23 ar   
    12   23   22 ar   
    13   22   15 ar   
    14   15   14 ar   
    15   14   13 ar   
    16    7   10 1    
    17   21   20 ar   
    18   20   19 ar   
    19   19   18 ar   
    20   18   17 ar   
    21    2   16 1    
    22   11   12 1    
    23    3    2 1    
    24    1    2 1    
    25    2   24 1    
    26   24   25 1    
    27   25   26 1    
    28   26   27 2    
    29   26   28 1    
    30    1   29 1    
    31    1   30 1    
    32    8   31 1    
    33   10   11 1    
    34   10   32 1    
    35   10   33 1    
    36   11   34 1    
    37   11   35 1    
    38   13   36 1    
    39   14   37 1    
    40   15   38 1    
    41   17   39 1    
    42   18   40 1    
    43   18   41 1    
    44   19   42 1    
    45   19   43 1    
    46   20   44 1    
    47   20   45 1    
    48   21   46 1    
    49   22   47 1    
    50   22   48 1    
    51   23   49 1    
    52   23   50 1    
    53   24   51 1    
    54   24   52 1    
    55   25   53 1    
    56   25   54 1    
    57   28   55 1    
@<TRIPOS>SUBSTRUCTURE
     1 PHENYL      2 PERM              0 ****  ****    3  
     2 PHENYL     10 PERM              0 ****  ****    3 ROOT 
     3 PHENYL     16 PERM              0 ****  ****    1  
     4 PHENYL     11 PERM              0 ****  ****    2  
     5 PHENYL     12 PERM              0 ****  ****    1  
@<TRIPOS>NORMAL
@<TRIPOS>FF_PBC
FORCE_FIELD_SETUP_FEATURE Force Field Setup information
v1.0  0 0.000000 0.000000 0.000000 0.000000 0.000000 0.000000 NONE 0 0 0 0 1 0 0 0 0 0 0 0 0
