#	Name:			T32
#	Creating user name:	ccollar
#	Creation time:		Fri Jul 29 22:24:40 2005

#	Modifying user name:	ccollar
#	Modification time:	Fri Jul 29 23:44:46 2005

@<TRIPOS>MOLECULE
T32
   58    60     5     1     0
SMALL
GASTEIGER


@<TRIPOS>ATOM
      1 C1          8.910967    4.085665    8.510617 C.3       2 PHENYL      0.028835 
      2 C2          8.272821    3.622655    9.853545 C.3       1 PHENYL      0.109319 
      3 O3          9.220611    3.653027   10.945195 O.3       2 PHENYL     -0.299247 
      4 C4         10.455427    3.193475   10.703268 C.2       2 PHENYL      0.303176 
      5 C5         10.961719    2.996333    9.334863 C.2       2 PHENYL      0.105123 
      6 C6         10.251222    3.433203    8.294083 C.2       2 PHENYL      0.072130 
      7 S7         12.536307    2.194099    9.074457 S.3       2 PHENYL     -0.116944 
      8 O8         10.726636    3.302817    7.047158 O.3       2 PHENYL     -0.362719 
      9 O9         11.183105    2.960335   11.653884 O.2       2 PHENYL     -0.258548 
     10 C          13.531823    3.701859    9.307081 C.3       2 PHENYL      0.002239 
     11 C          15.025457    3.349034    9.113708 C.3       4 PHENYL     -0.022074 
     12 C          15.874758    4.609541    9.318889 C.ar      5 PHENYL     -0.068473 
     13 C          16.447268    4.892869   10.563401 C.ar      5 PHENYL     -0.062775 
     14 C          17.334829    5.961499   10.724933 C.ar      5 PHENYL     -0.065718 
     15 C          17.838971    6.660400    9.623971 C.ar      5 PHENYL     -0.083711 
     16 C           7.134910    4.606524   10.232922 C.ar      3 PHENYL     -0.022717 
     17 C           6.123259    4.931742    9.317888 C.ar      3 PHENYL     -0.078362 
     18 C           5.118028    5.881838    9.644001 C.3       3 PHENYL     -0.033855 
     19 C           4.852619    5.899951   11.057695 C.3       3 PHENYL     -0.046139 
     20 C           6.051020    6.145682   11.814694 C.3       3 PHENYL     -0.033855 
     21 C           7.067979    5.203321   11.500585 C.ar      3 PHENYL     -0.078362 
     22 C          17.552189    6.179940    8.220305 C.3       5 PHENYL     -0.030772 
     23 C          16.092527    5.607421    8.148046 C.3       5 PHENYL     -0.027981 
     24 C24         7.618780    2.205309    9.777549 C.3       1 PHENYL     -0.018129 
     25 C25         8.555879    1.012037    9.436895 C.3       1 PHENYL     -0.041110 
     26 C26         7.773327   -0.330299    9.413966 C.3       1 PHENYL      0.033106 
     27 C27         8.657577   -1.507876    9.093221 C.2       1 PHENYL      0.259589 
     28 O28         8.042990   -2.692266    9.075946 O.3       1 PHENYL     -0.331267 
     29 O29         9.851216   -1.387217    8.864850 O.2       1 PHENYL     -0.265177 
     30 H1          8.239866    3.836386    7.676170 H         2 PHENYL      0.036463 
     31 H2          9.074567    5.174324    8.523966 H         2 PHENYL      0.036463 
     32 H3         10.182161    3.662334    6.355352 H         2 PHENYL      0.216929 
     33 H4         13.365611    4.097995   10.321455 H         2 PHENYL      0.038279 
     34 H5         13.221489    4.459053    8.569390 H         2 PHENYL      0.038279 
     35 H6         15.188592    2.952830    8.099183 H         4 PHENYL      0.031807 
     36 H7         15.322069    2.568307    9.832360 H         4 PHENYL      0.031807 
     37 H8         16.196000    4.279413   11.422949 H         5 PHENYL      0.061708 
     38 H9         17.642425    6.251416   11.725231 H         5 PHENYL      0.061447 
     39 H10        18.454349    7.541693    9.779027 H         5 PHENYL      0.057213 
     40 H11         6.095680    4.468605    8.337564 H         3 PHENYL      0.057553 
     41 H12         5.469176    6.868072    9.295578 H         3 PHENYL      0.030760 
     42 H13         4.191140    5.643718    9.091974 H         3 PHENYL      0.030760 
     43 H14         4.101180    6.678136   11.286264 H         3 PHENYL      0.027116 
     44 H15         4.419771    4.928430   11.361788 H         3 PHENYL      0.027116 
     45 H16         6.454179    7.150077   11.600240 H         3 PHENYL      0.030760 
     46 H17         5.827216    6.100100   12.895597 H         3 PHENYL      0.030760 
     47 H18         7.800703    4.963626   12.265111 H         3 PHENYL      0.057553 
     48 H19        17.674197    7.003253    7.497979 H         5 PHENYL      0.031045 
     49 H20        18.274968    5.384871    7.977890 H         5 PHENYL      0.031045 
     50 H21        15.364765    6.425722    8.264883 H         5 PHENYL      0.031304 
     51 H22        15.924656    5.123036    7.173374 H         5 PHENYL      0.031304 
     52 H23         6.810755    2.216578    9.029654 H         1 PHENYL      0.029666 
     53 H24         7.160695    2.007083   10.760565 H         1 PHENYL      0.029666 
     54 H25         9.352085    0.919554   10.191466 H         1 PHENYL      0.027103 
     55 H26         9.012229    1.154544    8.444975 H         1 PHENYL      0.027103 
     56 H27         6.976363   -0.288372    8.655063 H         1 PHENYL      0.036602 
     57 H28         7.309865   -0.510852   10.396652 H         1 PHENYL      0.036602 
     58 H29         8.645606   -3.398898    8.870580 H         1 PHENYL      0.220208 
@<TRIPOS>BOND
     1   16   17 ar   
     2   16   21 ar   
     3    4    3 1    
     4    4    5 1    
     5    5    6 2    
     6    6    1 1    
     7    5    7 1    
     8    6    8 1    
     9    4    9 2    
    10   12   13 ar   
    11   12   23 ar   
    12   23   22 ar   
    13   22   15 ar   
    14   15   14 ar   
    15   14   13 ar   
    16    7   10 1    
    17   21   20 ar   
    18   20   19 ar   
    19   19   18 ar   
    20   18   17 ar   
    21    2   16 1    
    22   11   12 1    
    23    3    2 1    
    24    1    2 1    
    25    2   24 1    
    26   24   25 1    
    27   25   26 1    
    28   26   27 1    
    29   27   28 1    
    30   27   29 2    
    31    1   30 1    
    32    1   31 1    
    33   10   11 1    
    34    8   32 1    
    35   10   33 1    
    36   10   34 1    
    37   11   35 1    
    38   11   36 1    
    39   13   37 1    
    40   14   38 1    
    41   15   39 1    
    42   17   40 1    
    43   18   41 1    
    44   18   42 1    
    45   19   43 1    
    46   19   44 1    
    47   20   45 1    
    48   20   46 1    
    49   21   47 1    
    50   22   48 1    
    51   22   49 1    
    52   23   50 1    
    53   23   51 1    
    54   24   52 1    
    55   24   53 1    
    56   25   54 1    
    57   25   55 1    
    58   26   56 1    
    59   26   57 1    
    60   28   58 1    
@<TRIPOS>SUBSTRUCTURE
     1 PHENYL      2 PERM              0 ****  ****    3  
     2 PHENYL     10 PERM              0 ****  ****    3 ROOT 
     3 PHENYL     16 PERM              0 ****  ****    1  
     4 PHENYL     11 PERM              0 ****  ****    2  
     5 PHENYL     12 PERM              0 ****  ****    1  
@<TRIPOS>NORMAL
@<TRIPOS>FF_PBC
FORCE_FIELD_SETUP_FEATURE Force Field Setup information
v1.0  0 0.000000 0.000000 0.000000 0.000000 0.000000 0.000000 NONE 0 0 0 0 1 0 0 0 0 0 0 0 0
