#	Name:			T33
#	Creating user name:	ccollar
#	Creation time:		Fri Jul 29 22:24:40 2005

#	Modifying user name:	ccollar
#	Modification time:	Fri Jul 29 23:48:04 2005

@<TRIPOS>MOLECULE
T33
   60    62     5     1     0
SMALL
GASTEIGER


@<TRIPOS>ATOM
      1 C1          7.172604    4.127057    8.355084 C.3       2 PHENYL      0.028835 
      2 C2          6.649688    3.498456    9.677537 C.3       1 PHENYL      0.109317 
      3 O3          7.573181    3.701254   10.771309 O.3       2 PHENYL     -0.299247 
      4 C4          8.879737    3.534119   10.523016 C.2       2 PHENYL      0.303176 
      5 C5          9.422395    3.484518    9.153250 C.2       2 PHENYL      0.105123 
      6 C6          8.611784    3.777081    8.129034 C.2       2 PHENYL      0.072130 
      7 S7         11.148596    3.058269    8.940014 S.3       2 PHENYL     -0.116944 
      8 O8          9.005654    3.788150    6.845424 O.3       2 PHENYL     -0.362719 
      9 O9          9.640202    3.448325   11.472947 O.2       2 PHENYL     -0.258548 
     10 C          11.752012    4.768223    9.129202 C.3       2 PHENYL      0.002239 
     11 C          13.287155    4.788906    8.939810 C.3       4 PHENYL     -0.022074 
     12 C          13.795355    6.228525    9.088970 C.ar      5 PHENYL     -0.068473 
     13 C          14.274420    6.696451   10.317115 C.ar      5 PHENYL     -0.062775 
     14 C          14.864413    7.959598   10.432036 C.ar      5 PHENYL     -0.065718 
     15 C          15.183321    8.720538    9.303385 C.ar      5 PHENYL     -0.083711 
     16 C           5.329395    4.210782   10.072224 C.ar      3 PHENYL     -0.022717 
     17 C           4.269652    4.317583    9.160033 C.ar      3 PHENYL     -0.078362 
     18 C           3.063372    5.012470    9.498880 C.3       3 PHENYL     -0.033855 
     19 C           2.806362    4.954777   10.930729 C.3       3 PHENYL     -0.046139 
     20 C           3.941859    5.467464   11.684173 C.3       3 PHENYL     -0.033855 
     21 C           5.145712    4.766185   11.347277 C.ar      3 PHENYL     -0.078362 
     22 C          15.034731    8.129166    7.915614 C.3       5 PHENYL     -0.030772 
     23 C          13.761764    7.203511    7.872609 C.3       5 PHENYL     -0.027981 
     24 C24         6.311245    1.977991    9.556529 C.3       1 PHENYL     -0.018310 
     25 C25         7.480535    1.014532    9.204720 C.3       1 PHENYL     -0.046473 
     26 C26         6.976725   -0.451386    9.099789 C.3       1 PHENYL     -0.028771 
     27 C27         8.109511   -1.390810    8.762673 C.2       1 PHENYL     -0.012587 
     28 C28         8.414295   -2.604530    9.541041 C.2       1 PHENYL      0.280035 
     29 O29         9.434379   -3.382119    9.172125 O.3       1 PHENYL     -0.328163 
     30 O30         7.732490   -2.892394   10.512755 O.2       1 PHENYL     -0.260428 
     31 H1          6.587471    3.773605    7.493471 H         2 PHENYL      0.036463 
     32 H2          7.107502    5.225269    8.401639 H         2 PHENYL      0.036463 
     33 H3          9.912101    3.564553    6.667405 H         2 PHENYL      0.216929 
     34 H4         11.490843    5.137569   10.133536 H         2 PHENYL      0.038279 
     35 H5         11.270820    5.410553    8.374605 H         2 PHENYL      0.038279 
     36 H6         13.546288    4.406860    7.939980 H         4 PHENYL      0.031807 
     37 H7         13.766336    4.134813    9.685711 H         4 PHENYL      0.031807 
     38 H8         14.182435    6.074370   11.201656 H         5 PHENYL      0.061708 
     39 H9         15.084149    8.355758   11.418815 H         5 PHENYL      0.061447 
     40 H10        15.556345    9.733428    9.422217 H         5 PHENYL      0.057213 
     41 H11         4.347564    3.881236    8.170088 H         3 PHENYL      0.057553 
     42 H12         3.173369    6.056959    9.161604 H         3 PHENYL      0.030760 
     43 H13         2.213741    4.568584    8.950490 H         3 PHENYL      0.030760 
     44 H14         1.901807    5.542285   11.171549 H         3 PHENYL      0.027116 
     45 H15         2.611187    3.907659   11.227857 H         3 PHENYL      0.027116 
     46 H16         4.105646    6.536516   11.467440 H         3 PHENYL      0.030760 
     47 H17         3.745539    5.369197   12.766484 H         3 PHENYL      0.030760 
     48 H18         5.919592    4.684200   12.104278 H         3 PHENYL      0.057553 
     49 H19        14.949506    8.928709    7.162187 H         5 PHENYL      0.031045 
     50 H20        15.935015    7.532317    7.700365 H         5 PHENYL      0.031045 
     51 H21        12.851707    7.817747    7.959039 H         5 PHENYL      0.031304 
     52 H22        13.726966    6.653507    6.919279 H         5 PHENYL      0.031304 
     53 H23         5.528636    1.840472    8.794167 H         1 PHENYL      0.029664 
     54 H24         5.892414    1.661392   10.526219 H         1 PHENYL      0.029664 
     55 H25         8.259974    1.053606    9.982018 H         1 PHENYL      0.026923 
     56 H26         7.923509    1.289849    8.235132 H         1 PHENYL      0.026923 
     57 H27         6.223259   -0.531822    8.299956 H         1 PHENYL      0.030923 
     58 H28         6.500346   -0.746861   10.048209 H         1 PHENYL      0.030923 
     59 H29         8.739602   -1.178164    7.899483 H         1 PHENYL      0.063111 
     60 H30         9.536099   -4.138189    9.740267 H         1 PHENYL      0.220527 
@<TRIPOS>BOND
     1   16   17 ar   
     2   16   21 ar   
     3    4    3 1    
     4    4    5 1    
     5    5    6 2    
     6    6    1 1    
     7    5    7 1    
     8    6    8 1    
     9    4    9 2    
    10   12   13 ar   
    11   12   23 ar   
    12   23   22 ar   
    13   22   15 ar   
    14   15   14 ar   
    15   14   13 ar   
    16    7   10 1    
    17   21   20 ar   
    18   20   19 ar   
    19   19   18 ar   
    20   18   17 ar   
    21    2   16 1    
    22   11   12 1    
    23    3    2 1    
    24    1    2 1    
    25    2   24 1    
    26   24   25 1    
    27   25   26 1    
    28   26   27 1    
    29   27   28 1    
    30   28   29 1    
    31   28   30 2    
    32    1   31 1    
    33   10   11 1    
    34    1   32 1    
    35    8   33 1    
    36   10   34 1    
    37   10   35 1    
    38   11   36 1    
    39   11   37 1    
    40   13   38 1    
    41   14   39 1    
    42   15   40 1    
    43   17   41 1    
    44   18   42 1    
    45   18   43 1    
    46   19   44 1    
    47   19   45 1    
    48   20   46 1    
    49   20   47 1    
    50   21   48 1    
    51   22   49 1    
    52   22   50 1    
    53   23   51 1    
    54   23   52 1    
    55   24   53 1    
    56   24   54 1    
    57   25   55 1    
    58   25   56 1    
    59   26   57 1    
    60   26   58 1    
    61   27   59 1    
    62   29   60 1    
@<TRIPOS>SUBSTRUCTURE
     1 PHENYL      2 PERM              0 ****  ****    3  
     2 PHENYL     10 PERM              0 ****  ****    3 ROOT 
     3 PHENYL     16 PERM              0 ****  ****    1  
     4 PHENYL     11 PERM              0 ****  ****    2  
     5 PHENYL     12 PERM              0 ****  ****    1  
@<TRIPOS>NORMAL
@<TRIPOS>FF_PBC
FORCE_FIELD_SETUP_FEATURE Force Field Setup information
v1.0  0 0.000000 0.000000 0.000000 0.000000 0.000000 0.000000 NONE 0 0 0 0 1 0 0 0 0 0 0 0 0
