#	Name:			T34
#	Creating user name:	ccollar
#	Creation time:		Fri Jul 29 22:24:40 2005

#	Modifying user name:	ccollar
#	Modification time:	Fri Jul 29 23:51:15 2005

@<TRIPOS>MOLECULE
T34
   59    61     5     1     0
SMALL
GASTEIGER


@<TRIPOS>ATOM
      1 C1          7.365593    4.079940    8.223929 C.3       2 PHENYL      0.028835 
      2 C2          6.780741    3.565738    9.572830 C.3       1 PHENYL      0.109319 
      3 O3          7.657204    3.849086   10.687689 O.3       2 PHENYL     -0.299247 
      4 C4          8.969017    3.644051   10.510677 C.2       2 PHENYL      0.303176 
      5 C5          9.562054    3.488883    9.172269 C.2       2 PHENYL      0.105123 
      6 C6          8.820500    3.714320    8.086880 C.2       2 PHENYL      0.072130 
      7 S7         11.278612    3.023340    9.007617 S.3       2 PHENYL     -0.116944 
      8 O8          9.364856    3.625481    6.864674 O.3       2 PHENYL     -0.362719 
      9 O9          9.688534    3.615222   11.495040 O.2       2 PHENYL     -0.258548 
     10 C          11.924805    4.719546    9.160935 C.3       2 PHENYL      0.002239 
     11 C          13.466177    4.680032    9.037225 C.3       4 PHENYL     -0.022074 
     12 C          14.021769    6.102984    9.172236 C.ar      5 PHENYL     -0.068473 
     13 C          14.462045    6.586538   10.408804 C.ar      5 PHENYL     -0.062775 
     14 C          15.096156    7.828292   10.519733 C.ar      5 PHENYL     -0.065718 
     15 C          15.497988    8.546974    9.389769 C.ar      5 PHENYL     -0.083711 
     16 C           5.448971    4.308511    9.862305 C.ar      3 PHENYL     -0.022717 
     17 C           4.440964    4.383266    8.889992 C.ar      3 PHENYL     -0.078362 
     18 C           3.231268    5.137254    9.117502 C.3       3 PHENYL     -0.033855 
     19 C           2.879804    5.147433   10.545559 C.3       3 PHENYL     -0.046139 
     20 C           3.996830    5.669904   11.347338 C.3       3 PHENYL     -0.033855 
     21 C           5.207224    4.921343   11.101019 C.ar      3 PHENYL     -0.078362 
     22 C          15.390977    7.925249    8.006302 C.3       5 PHENYL     -0.030772 
     23 C          14.081323    7.046639    7.925827 C.3       5 PHENYL     -0.027981 
     24 C24         6.436627    2.041443    9.561576 C.3       1 PHENYL     -0.018153 
     25 C25         7.610407    1.054667    9.303174 C.3       1 PHENYL     -0.041850 
     26 C26         7.125792   -0.421697    9.341514 C.3       1 PHENYL      0.023846 
     27 C27         8.240847   -1.411292    9.097736 C.2       1 PHENYL      0.210482 
     28 N28         7.952606   -2.728275    9.138251 N.am      1 PHENYL     -0.329322 
     29 O29         9.371401   -1.013230    8.869719 O.2       1 PHENYL     -0.276034 
     30 H1          6.799146    3.649052    7.385895 H         2 PHENYL      0.036463 
     31 H2          7.296878    5.177688    8.174854 H         2 PHENYL      0.036463 
     32 H3          8.786898    3.826936    6.136879 H         2 PHENYL      0.216929 
     33 H4         11.634789    5.135092   10.139083 H         2 PHENYL      0.038279 
     34 H5         11.495189    5.344997    8.362126 H         2 PHENYL      0.038279 
     35 H6         13.752916    4.261865    8.059614 H         4 PHENYL      0.031807 
     36 H7         13.888714    4.029542    9.819723 H         4 PHENYL      0.031807 
     37 H8         14.304435    5.992680   11.303670 H         5 PHENYL      0.061708 
     38 H9         15.285088    8.241642   11.506007 H         5 PHENYL      0.061447 
     39 H10        15.905426    9.547312    9.502186 H         5 PHENYL      0.057213 
     40 H11         4.554747    3.878769    7.937119 H         3 PHENYL      0.057553 
     41 H12         3.399049    6.162857    8.748558 H         3 PHENYL      0.030760 
     42 H13         2.403146    4.698513    8.533925 H         3 PHENYL      0.030760 
     43 H14         1.979823    5.767379   10.706665 H         3 PHENYL      0.027116 
     44 H15         2.641114    4.119343   10.872991 H         3 PHENYL      0.027116 
     45 H16         4.197696    6.724966   11.097061 H         3 PHENYL      0.030760 
     46 H17         3.740210    5.619282   12.419914 H         3 PHENYL      0.030760 
     47 H18         5.934612    4.853507   11.903788 H         3 PHENYL      0.057553 
     48 H19        15.372798    8.707990    7.230939 H         5 PHENYL      0.031045 
     49 H20        16.275334    7.287985    7.848526 H         5 PHENYL      0.031045 
     50 H21        13.193397    7.697400    7.953446 H         5 PHENYL      0.031304 
     51 H22        14.068995    6.471109    6.987114 H         5 PHENYL      0.031304 
     52 H23         5.666726    1.848045    8.798473 H         1 PHENYL      0.029666 
     53 H24         5.999776    1.801077   10.544774 H         1 PHENYL      0.029666 
     54 H25         8.387045    1.168964   10.074860 H         1 PHENYL      0.027079 
     55 H26         8.054191    1.240664    8.312706 H         1 PHENYL      0.027079 
     56 H27         6.355930   -0.580312    8.570064 H         1 PHENYL      0.035822 
     57 H28         6.684175   -0.639883   10.326692 H         1 PHENYL      0.035822 
     58 H29         8.684829   -3.391157    8.978332 H         1 PHENYL      0.144929 
     59 H30         7.025853   -3.054775    9.324809 H         1 PHENYL      0.144929 
@<TRIPOS>BOND
     1   16   17 ar   
     2   16   21 ar   
     3    4    3 1    
     4    4    5 1    
     5    5    6 2    
     6    6    1 1    
     7    5    7 1    
     8    6    8 1    
     9    4    9 2    
    10   12   13 ar   
    11   12   23 ar   
    12   23   22 ar   
    13   22   15 ar   
    14   15   14 ar   
    15   14   13 ar   
    16    7   10 1    
    17   21   20 ar   
    18   20   19 ar   
    19   19   18 ar   
    20   18   17 ar   
    21    2   16 1    
    22   11   12 1    
    23    3    2 1    
    24    1    2 1    
    25    2   24 1    
    26   24   25 1    
    27   25   26 1    
    28   26   27 1    
    29   27   28 am   
    30   27   29 2    
    31    1   30 1    
    32    1   31 1    
    33   10   11 1    
    34    8   32 1    
    35   10   33 1    
    36   10   34 1    
    37   11   35 1    
    38   11   36 1    
    39   13   37 1    
    40   14   38 1    
    41   15   39 1    
    42   17   40 1    
    43   18   41 1    
    44   18   42 1    
    45   19   43 1    
    46   19   44 1    
    47   20   45 1    
    48   20   46 1    
    49   21   47 1    
    50   22   48 1    
    51   22   49 1    
    52   23   50 1    
    53   23   51 1    
    54   24   52 1    
    55   24   53 1    
    56   25   54 1    
    57   25   55 1    
    58   26   56 1    
    59   26   57 1    
    60   28   58 1    
    61   28   59 1    
@<TRIPOS>SUBSTRUCTURE
     1 PHENYL      2 PERM              0 ****  ****    3  
     2 PHENYL     10 PERM              0 ****  ****    3 ROOT 
     3 PHENYL     16 PERM              0 ****  ****    1  
     4 PHENYL     11 PERM              0 ****  ****    2  
     5 PHENYL     12 PERM              0 ****  ****    1  
@<TRIPOS>NORMAL
@<TRIPOS>FF_PBC
FORCE_FIELD_SETUP_FEATURE Force Field Setup information
v1.0  0 0.000000 0.000000 0.000000 0.000000 0.000000 0.000000 NONE 0 0 0 0 1 0 0 0 0 0 0 0 0
