#	Name:			T35
#	Creating user name:	ccollar
#	Creation time:		Fri Jul 29 22:24:40 2005

#	Modifying user name:	ccollar
#	Modification time:	Fri Jul 29 23:54:17 2005

@<TRIPOS>MOLECULE
T35
   61    63     5     1     0
SMALL
GASTEIGER


@<TRIPOS>ATOM
      1 C1          6.197243    3.807754    7.683944 C.3       2 PHENYL      0.028835 
      2 C2          5.771122    3.335583    9.103475 C.3       1 PHENYL      0.109317 
      3 O3          6.648740    3.864522   10.123900 O.3       2 PHENYL     -0.299247 
      4 C4          7.966467    3.851830    9.879338 C.2       2 PHENYL      0.303176 
      5 C5          8.515909    3.643624    8.527284 C.2       2 PHENYL      0.105123 
      6 C6          7.673271    3.639492    7.487200 C.2       2 PHENYL      0.072130 
      7 S7         10.284692    3.427069    8.351648 S.3       2 PHENYL     -0.116944 
      8 O8          8.063842    3.490016    6.211193 O.3       2 PHENYL     -0.362719 
      9 O9          8.727046    4.045149   10.813007 O.2       2 PHENYL     -0.258548 
     10 C          10.665970    5.208843    8.325781 C.3       2 PHENYL      0.002239 
     11 C          12.189092    5.393584    8.129457 C.3       4 PHENYL     -0.022074 
     12 C          12.517440    6.891277    8.104652 C.ar      5 PHENYL     -0.068473 
     13 C          12.911939    7.558588    9.268941 C.ar      5 PHENYL     -0.062775 
     14 C          13.343375    8.888575    9.235782 C.ar      5 PHENYL     -0.065718 
     15 C          13.593711    9.547410    8.028393 C.ar      5 PHENYL     -0.083711 
     16 C           4.353277    3.886057    9.410990 C.ar      3 PHENYL     -0.022717 
     17 C           3.303942    3.712338    8.496851 C.ar      3 PHENYL     -0.078362 
     18 C           1.990668    4.289948    8.728508 C.3       3 PHENYL     -0.033855 
     19 C           1.703872    4.378576   10.181309 C.3       3 PHENYL     -0.046139 
     20 C           2.771148    5.147838   10.867320 C.3       3 PHENYL     -0.033855 
     21 C           4.078042    4.564845   10.607568 C.ar      3 PHENYL     -0.078362 
     22 C          13.548600    8.782840    6.709822 C.3       5 PHENYL     -0.030772 
     23 C          12.390404    7.705056    6.768673 C.3       5 PHENYL     -0.027981 
     24 C24         5.677456    1.782247    9.244132 C.3       1 PHENYL     -0.018311 
     25 C25         6.980632    0.968838    9.004072 C.3       1 PHENYL     -0.046497 
     26 C26         6.732406   -0.554175    9.182674 C.3       1 PHENYL     -0.029517 
     27 C27         7.983170   -1.366130    8.951118 C.2       1 PHENYL     -0.022391 
     28 C28         8.005296   -2.821490    9.196374 C.2       1 PHENYL      0.230401 
     29 N29         9.129780   -3.537700    8.994083 N.am      1 PHENYL     -0.326081 
     30 O30         6.979751   -3.356534    9.584109 O.2       1 PHENYL     -0.271399 
     31 H1          5.677814    3.231568    6.904411 H         2 PHENYL      0.036463 
     32 H2          5.966574    4.875901    7.550831 H         2 PHENYL      0.036463 
     33 H3          8.994215    3.377742    6.052628 H         2 PHENYL      0.216929 
     34 H4         10.350523    5.665719    9.277244 H         2 PHENYL      0.038279 
     35 H5         10.117017    5.687004    7.498781 H         2 PHENYL      0.038279 
     36 H6         12.503755    4.930410    7.181316 H         4 PHENYL      0.031807 
     37 H7         12.736152    4.896223    8.946245 H         4 PHENYL      0.031807 
     38 H8         12.877473    7.039277   10.221576 H         5 PHENYL      0.061708 
     39 H9         13.492156    9.421308   10.170371 H         5 PHENYL      0.061447 
     40 H10        13.839383   10.605167    8.030456 H         5 PHENYL      0.057213 
     41 H11         3.454795    3.144703    7.585581 H         3 PHENYL      0.057553 
     42 H12         1.974025    5.290754    8.266232 H         3 PHENYL      0.030760 
     43 H13         1.219465    3.673607    8.235196 H         3 PHENYL      0.030760 
     44 H14         0.726226    4.865688   10.343007 H         3 PHENYL      0.027116 
     45 H15         1.649684    3.361632   10.609124 H         3 PHENYL      0.027116 
     46 H16         2.789220    6.191147   10.511292 H         3 PHENYL      0.030760 
     47 H17         2.578050    5.161867   11.953828 H         3 PHENYL      0.030760 
     48 H18         4.844003    4.678484   11.367955 H         3 PHENYL      0.057553 
     49 H19        13.383940    9.473678    5.867479 H         5 PHENYL      0.031045 
     50 H20        14.518076    8.278580    6.573100 H         5 PHENYL      0.031045 
     51 H21        11.411714    8.209609    6.772801 H         5 PHENYL      0.031304 
     52 H22        12.444170    7.043801    5.889974 H         5 PHENYL      0.031304 
     53 H23         4.915537    1.401277    8.546570 H         1 PHENYL      0.029664 
     54 H24         5.328515    1.569953   10.268004 H         1 PHENYL      0.029664 
     55 H25         7.760917    1.269147    9.720335 H         1 PHENYL      0.026923 
     56 H26         7.347522    1.129601    7.978618 H         1 PHENYL      0.026923 
     57 H27         5.968185   -0.894987    8.465897 H         1 PHENYL      0.030900 
     58 H28         6.366504   -0.756802   10.202216 H         1 PHENYL      0.030900 
     59 H29         8.889846   -0.879144    8.592687 H         1 PHENYL      0.062325 
     60 H30         9.974032   -3.106550    8.676762 H         1 PHENYL      0.145229 
     61 H31         9.116302   -4.523224    9.165714 H         1 PHENYL      0.145229 
@<TRIPOS>BOND
     1   16   17 ar   
     2   16   21 ar   
     3    4    3 1    
     4    4    5 1    
     5    5    6 2    
     6    6    1 1    
     7    5    7 1    
     8    6    8 1    
     9    4    9 2    
    10   12   13 ar   
    11   12   23 ar   
    12   23   22 ar   
    13   22   15 ar   
    14   15   14 ar   
    15   14   13 ar   
    16    7   10 1    
    17   21   20 ar   
    18   20   19 ar   
    19   19   18 ar   
    20   18   17 ar   
    21    2   16 1    
    22   11   12 1    
    23    3    2 1    
    24    1    2 1    
    25    2   24 1    
    26   24   25 1    
    27   25   26 1    
    28   26   27 1    
    29   27   28 1    
    30   28   29 am   
    31   28   30 2    
    32    1   31 1    
    33   10   11 1    
    34    1   32 1    
    35    8   33 1    
    36   10   34 1    
    37   10   35 1    
    38   11   36 1    
    39   11   37 1    
    40   13   38 1    
    41   14   39 1    
    42   15   40 1    
    43   17   41 1    
    44   18   42 1    
    45   18   43 1    
    46   19   44 1    
    47   19   45 1    
    48   20   46 1    
    49   20   47 1    
    50   21   48 1    
    51   22   49 1    
    52   22   50 1    
    53   23   51 1    
    54   23   52 1    
    55   24   53 1    
    56   24   54 1    
    57   25   55 1    
    58   25   56 1    
    59   26   57 1    
    60   26   58 1    
    61   27   59 1    
    62   29   60 1    
    63   29   61 1    
@<TRIPOS>SUBSTRUCTURE
     1 PHENYL      2 PERM              0 ****  ****    3  
     2 PHENYL     10 PERM              0 ****  ****    3 ROOT 
     3 PHENYL     16 PERM              0 ****  ****    1  
     4 PHENYL     11 PERM              0 ****  ****    2  
     5 PHENYL     12 PERM              0 ****  ****    1  
@<TRIPOS>NORMAL
@<TRIPOS>FF_PBC
FORCE_FIELD_SETUP_FEATURE Force Field Setup information
v1.0  0 0.000000 0.000000 0.000000 0.000000 0.000000 0.000000 NONE 0 0 0 0 1 0 0 0 0 0 0 0 0
