#	Name:			T37
#	Creating user name:	ccollar
#	Creation time:		Fri Jul 29 22:24:40 2005

#	Modifying user name:	ccollar
#	Modification time:	Sat Jul 30 00:00:47 2005

@<TRIPOS>MOLECULE
T37
   64    67     7     1     0
SMALL
GASTEIGER


@<TRIPOS>ATOM
      1 C1          6.552504    4.405180    8.246766 C.3       2 PHENYL      0.030069 
      2 C2          5.835097    3.507858    9.289976 C.3       1 PHENYL      0.122235 
      3 O3          6.455638    3.648697   10.589114 O.3       2 PHENYL     -0.297937 
      4 C4          7.795523    3.578203   10.623020 C.2       2 PHENYL      0.303215 
      5 C5          8.619569    3.710731    9.404877 C.2       2 PHENYL      0.105124 
      6 C6          8.020886    4.103958    8.272178 C.2       2 PHENYL      0.072174 
      7 S7         10.372984    3.367725    9.514788 S.3       2 PHENYL     -0.116944 
      8 O8          8.660850    4.264664    7.102930 O.3       2 PHENYL     -0.362718 
      9 O9          8.340886    3.427193   11.703466 O.2       2 PHENYL     -0.258548 
     10 C          10.849250    5.115548    9.726817 C.3       2 PHENYL      0.002239 
     11 C          12.391532    5.231386    9.736321 C.3       4 PHENYL     -0.022074 
     12 C          12.778462    6.712027    9.834979 C.ar      5 PHENYL     -0.068473 
     13 C          13.034878    7.307314   11.074413 C.ar      5 PHENYL     -0.062775 
     14 C          13.498062    8.623439   11.171758 C.ar      5 PHENYL     -0.065718 
     15 C          13.924845    9.338187   10.048547 C.ar      5 PHENYL     -0.083711 
     16 C           4.372386    4.006568    9.379908 C.ar      3 PHENYL     -0.021477 
     17 C           3.519396    3.923495    8.270641 C.ar      3 PHENYL     -0.078320 
     18 C           2.201949    4.576710    8.253156 C.3       3 PHENYL     -0.033854 
     19 C           1.612092    4.676717    9.635648 C.3       3 PHENYL     -0.046139 
     20 C           2.600194    5.303158   10.585277 C.3       3 PHENYL     -0.033854 
     21 C           3.881172    4.578933   10.561266 C.ar      3 PHENYL     -0.078320 
     22 C          14.050262    8.641964    8.689121 C.3       5 PHENYL     -0.030772 
     23 C          12.864776    7.594191    8.528061 C.3       5 PHENYL     -0.027981 
     24 C           5.912062    2.004257    8.885446 C.3       6 PHENYL      0.037635 
     25 C25         5.998772    0.078800   10.516264 C.3       6 PHENYL     -0.007849 
     26 C           3.799191    1.032318    9.844688 C.ar      7 PHENYL      0.018111 
     27 C           3.050520    1.426664   10.956092 C.ar      7 PHENYL     -0.043709 
     28 C           1.661452    1.270108   10.957926 C.ar      7 PHENYL     -0.060276 
     29 N29         5.209159    1.152169    9.875056 N.3       6 PHENYL     -0.274066 
     30 C           1.014528    0.771924    9.822953 C.ar      7 PHENYL     -0.061662 
     31 C           1.760416    0.400654    8.700313 C.ar      7 PHENYL     -0.060276 
     32 C           3.154112    0.508001    8.720346 C.ar      7 PHENYL     -0.043709 
     33 H1          6.153650    4.225787    7.236610 H         2 PHENYL      0.036507 
     34 H2          6.415789    5.468862    8.496825 H         2 PHENYL      0.036507 
     35 H3          9.586929    4.051556    7.080853 H         2 PHENYL      0.216929 
     36 H4         10.433594    5.491537   10.675288 H         2 PHENYL      0.038279 
     37 H5         10.439327    5.713149    8.897355 H         2 PHENYL      0.038279 
     38 H6         12.804259    4.806359    8.808147 H         4 PHENYL      0.031807 
     39 H7         12.808309    4.663509   10.583440 H         4 PHENYL      0.031807 
     40 H8         12.863876    6.740817   11.984492 H         5 PHENYL      0.061708 
     41 H9         13.531493    9.102026   12.146057 H         5 PHENYL      0.061447 
     42 H10        14.186423   10.387886   10.142398 H         5 PHENYL      0.057213 
     43 H11         3.827704    3.386149    7.381361 H         3 PHENYL      0.057554 
     44 H12         2.337344    5.584555    7.828164 H         3 PHENYL      0.030760 
     45 H13         1.516465    4.014512    7.596280 H         3 PHENYL      0.030760 
     46 H14         0.685831    5.276580    9.608649 H         3 PHENYL      0.027116 
     47 H15         1.349034    3.670251    9.993245 H         3 PHENYL      0.027116 
     48 H16         2.800353    6.347513   10.294702 H         3 PHENYL      0.030760 
     49 H17         2.187080    5.303142   11.608249 H         3 PHENYL      0.030760 
     50 H18         4.450495    4.513991   11.482771 H         3 PHENYL      0.057554 
     51 H19        14.021276    9.379787    7.871441 H         5 PHENYL      0.031045 
     52 H20        15.017062    8.115587    8.661237 H         5 PHENYL      0.031045 
     53 H21        11.908586    8.128728    8.417366 H         5 PHENYL      0.031304 
     54 H22        13.028957    6.972477    7.634385 H         5 PHENYL      0.031304 
     55 H23         5.492760    1.840477    7.884153 H         6 PHENYL      0.046223 
     56 H24         6.967497    1.701643    8.818912 H         6 PHENYL      0.046223 
     57 H25         5.416873   -0.396967   11.320850 H         6 PHENYL      0.039447 
     58 H26         6.919579    0.490217   10.958297 H         6 PHENYL      0.039447 
     59 H27         6.261288   -0.686286    9.769803 H         6 PHENYL      0.039447 
     60 H28         3.555936    1.850663   11.817263 H         7 PHENYL      0.063321 
     61 H29         1.085857    1.540768   11.837790 H         7 PHENYL      0.061806 
     62 H30        -0.066770    0.673833    9.813072 H         7 PHENYL      0.061759 
     63 H31         1.257728    0.025708    7.813854 H         7 PHENYL      0.061806 
     64 H32         3.731864    0.178277    7.864053 H         7 PHENYL      0.063321 
@<TRIPOS>BOND
     1   16   17 ar   
     2   16   21 ar   
     3    4    3 1    
     4    4    5 1    
     5    5    6 2    
     6    6    1 1    
     7    5    7 1    
     8    6    8 1    
     9    4    9 2    
    10   12   13 ar   
    11   12   23 ar   
    12   23   22 ar   
    13   22   15 ar   
    14   15   14 ar   
    15   14   13 ar   
    16    7   10 1    
    17   21   20 ar   
    18   20   19 ar   
    19   19   18 ar   
    20   18   17 ar   
    21    2   16 1    
    22   11   12 1    
    23    3    2 1    
    24    1    2 1    
    25   29   25 1    
    26   24   29 1    
    27   26   27 ar   
    28   26   32 ar   
    29   32   31 ar   
    30   31   30 ar   
    31    2   24 1    
    32   30   28 ar   
    33   10   11 1    
    34   28   27 ar   
    35   29   26 1    
    36    1   33 1    
    37    1   34 1    
    38    8   35 1    
    39   10   36 1    
    40   10   37 1    
    41   11   38 1    
    42   11   39 1    
    43   13   40 1    
    44   14   41 1    
    45   15   42 1    
    46   17   43 1    
    47   18   44 1    
    48   18   45 1    
    49   19   46 1    
    50   19   47 1    
    51   20   48 1    
    52   20   49 1    
    53   21   50 1    
    54   22   51 1    
    55   22   52 1    
    56   23   53 1    
    57   23   54 1    
    58   24   55 1    
    59   24   56 1    
    60   25   57 1    
    61   25   58 1    
    62   25   59 1    
    63   27   60 1    
    64   28   61 1    
    65   30   62 1    
    66   31   63 1    
    67   32   64 1    
@<TRIPOS>SUBSTRUCTURE
     1 PHENYL      2 PERM              0 ****  ****    4  
     2 PHENYL     10 PERM              0 ****  ****    3 ROOT 
     3 PHENYL     16 PERM              0 ****  ****    1  
     4 PHENYL     11 PERM              0 ****  ****    2  
     5 PHENYL     12 PERM              0 ****  ****    1  
     6 PHENYL     24 PERM              0 ****  ****    2  
     7 PHENYL     26 PERM              0 ****  ****    1  
@<TRIPOS>NORMAL
@<TRIPOS>FF_PBC
FORCE_FIELD_SETUP_FEATURE Force Field Setup information
v1.0  0 0.000000 0.000000 0.000000 0.000000 0.000000 0.000000 NONE 0 0 0 0 1 0 0 0 0 0 0 0 0
