#	Name:			T38
#	Creating user name:	ccollar
#	Creation time:		Fri Jul 29 22:24:40 2005

#	Modifying user name:	ccollar
#	Modification time:	Sat Jul 30 00:04:12 2005

@<TRIPOS>MOLECULE
T38
   54    57     6     1     0
SMALL
GASTEIGER


@<TRIPOS>ATOM
      1 C1          6.082622    4.676377    7.995073 C.3       2 PHENYL      0.031047 
      2 C2          5.728827    3.766376    9.197945 C.3       1 PHENYL      0.132898 
      3 O3          6.464021    4.213946   10.358948 O.3       2 PHENYL     -0.296899 
      4 C4          7.773820    4.458633   10.196083 C.2       2 PHENYL      0.303264 
      5 C5          8.407056    4.521152    8.857788 C.2       2 PHENYL      0.105661 
      6 C6          7.572230    4.639893    7.812926 C.2       2 PHENYL      0.072227 
      7 S7         10.198984    4.474027    8.609337 S.3       2 PHENYL     -0.109433 
      8 O8          7.976146    4.736973    6.535642 O.3       2 PHENYL     -0.362717 
      9 O9          8.423648    4.665371   11.205140 O.2       2 PHENYL     -0.258547 
     10 C          10.949343    3.561656   10.015140 C.3       4 PHENYL      0.031846 
     11 C          11.498530    4.483661   10.946905 C.3       4 PHENYL     -0.018741 
     12 C          11.951903    3.874281   12.133855 C.ar      4 PHENYL     -0.082674 
     13 C          11.272892    2.770475   12.656755 C.ar      4 PHENYL     -0.065905 
     14 C          10.269833    2.172864   11.891520 C.ar      4 PHENYL     -0.064928 
     15 C          10.097792    2.585916   10.567700 C.ar      4 PHENYL     -0.070569 
     16 C           4.213719    3.864703    9.500943 C.ar      3 PHENYL     -0.020495 
     17 C           3.270293    3.487391    8.534236 C.ar      3 PHENYL     -0.078287 
     18 C           1.816567    3.549320    8.797826 C.3       3 PHENYL     -0.033854 
     19 C           1.539063    3.371421   10.277017 C.3       3 PHENYL     -0.046139 
     20 C           2.314293    4.411771   11.061083 C.3       3 PHENYL     -0.033854 
     21 C           3.757313    4.325277   10.744644 C.ar      3 PHENYL     -0.078287 
     22 H1          5.591781    4.330582    7.073500 H         2 PHENYL      0.036541 
     23 H2          5.770322    5.713023    8.193683 H         2 PHENYL      0.036541 
     24 C           6.071838    2.273020    8.921288 C.3       5 PHENYL      0.088311 
     25 H3          8.910389    4.726196    6.363689 H         2 PHENYL      0.216929 
     26 C           5.844059    0.109325    9.874238 C.ar      6 PHENYL      0.076313 
     27 C           4.910734   -0.683981    9.202479 C.ar      6 PHENYL     -0.031677 
     28 C           5.150104   -2.050876    9.032283 C.ar      6 PHENYL     -0.059320 
     29 O29         5.614548    1.474679   10.026695 O.3       5 PHENYL     -0.341479 
     30 C           6.320555   -2.622975    9.540532 C.ar      6 PHENYL     -0.061602 
     31 C           7.248727   -1.830495   10.223132 C.ar      6 PHENYL     -0.059320 
     32 C           7.007135   -0.464091   10.393384 C.ar      6 PHENYL     -0.031677 
     33 H4         11.776217    2.978859    9.572410 H         4 PHENYL      0.046153 
     34 H5         10.753812    5.232482   11.252721 H         4 PHENYL      0.032116 
     35 H6         12.331280    5.038333   10.478719 H         4 PHENYL      0.032116 
     36 H7         12.814636    4.270363   12.663647 H         4 PHENYL      0.057247 
     37 H8         11.519737    2.384531   13.641020 H         4 PHENYL      0.061440 
     38 H9          9.641301    1.396819   12.316673 H         4 PHENYL      0.061472 
     39 H10         9.323369    2.126584    9.964565 H         4 PHENYL      0.058314 
     40 H11         3.589818    3.146752    7.556085 H         3 PHENYL      0.057554 
     41 H12         1.445212    4.526680    8.449449 H         3 PHENYL      0.030760 
     42 H13         1.300388    2.759420    8.226603 H         3 PHENYL      0.030760 
     43 H14         0.458477    3.473332   10.475961 H         3 PHENYL      0.027116 
     44 H15         1.853922    2.361525   10.592681 H         3 PHENYL      0.027116 
     45 H16         1.966641    5.426393   10.807853 H         3 PHENYL      0.030760 
     46 H17         2.160116    4.252714   12.141630 H         3 PHENYL      0.030760 
     47 H18         4.460696    4.640895   11.508003 H         3 PHENYL      0.057554 
     48 H19         5.586884    1.929825    7.995115 H         5 PHENYL      0.059749 
     49 H20         7.154970    2.134407    8.799299 H         5 PHENYL      0.059749 
     50 H21         4.002868   -0.232506    8.816223 H         6 PHENYL      0.064328 
     51 H22         4.427470   -2.667277    8.506161 H         6 PHENYL      0.061837 
     52 H23         6.508561   -3.683916    9.405610 H         6 PHENYL      0.061760 
     53 H24         8.155863   -2.275258   10.620963 H         6 PHENYL      0.061837 
     54 H25         7.717425    0.157060   10.927466 H         6 PHENYL      0.064328 
@<TRIPOS>BOND
     1   16   17 ar   
     2   16   21 ar   
     3    4    3 1    
     4    4    5 1    
     5    5    6 2    
     6    6    1 1    
     7    5    7 1    
     8    6    8 1    
     9    4    9 2    
    10   10   11 ar   
    11   10   15 ar   
    12   15   14 ar   
    13   14   13 ar   
    14   13   12 ar   
    15   12   11 ar   
    16    7   10 1    
    17   21   20 ar   
    18   20   19 ar   
    19   19   18 ar   
    20   18   17 ar   
    21    2   16 1    
    22    1   22 1    
    23    3    2 1    
    24    1    2 1    
    25    1   23 1    
    26   24   29 1    
    27   26   27 ar   
    28   26   32 ar   
    29   32   31 ar   
    30   31   30 ar   
    31    2   24 1    
    32   30   28 ar   
    33    8   25 1    
    34   28   27 ar   
    35   29   26 1    
    36   10   33 1    
    37   11   34 1    
    38   11   35 1    
    39   12   36 1    
    40   13   37 1    
    41   14   38 1    
    42   15   39 1    
    43   17   40 1    
    44   18   41 1    
    45   18   42 1    
    46   19   43 1    
    47   19   44 1    
    48   20   45 1    
    49   20   46 1    
    50   21   47 1    
    51   24   48 1    
    52   24   49 1    
    53   27   50 1    
    54   28   51 1    
    55   30   52 1    
    56   31   53 1    
    57   32   54 1    
@<TRIPOS>SUBSTRUCTURE
     1 PHENYL      2 PERM              0 ****  ****    4  
     2 PHENYL     10 PERM              0 ****  ****    3 ROOT 
     3 PHENYL     16 PERM              0 ****  ****    1  
     4 PHENYL     10 PERM              0 ****  ****    1  
     5 PHENYL     24 PERM              0 ****  ****    2  
     6 PHENYL     26 PERM              0 ****  ****    1  
@<TRIPOS>NORMAL
@<TRIPOS>FF_PBC
FORCE_FIELD_SETUP_FEATURE Force Field Setup information
v1.0  0 0.000000 0.000000 0.000000 0.000000 0.000000 0.000000 NONE 0 0 0 0 1 0 0 0 0 0 0 0 0
