#	Name:			T39
#	Creating user name:	ccollar
#	Creation time:		Fri Jul 29 22:24:40 2005

#	Modifying user name:	ccollar
#	Modification time:	Sat Jul 30 00:06:43 2005

@<TRIPOS>MOLECULE
T39
   53    55     6     1     0
SMALL
GASTEIGER


@<TRIPOS>ATOM
      1 C1          7.509833    4.620981    8.226658 C.3       2 PHENYL      0.028835 
      2 C2          6.869176    3.906216    9.446668 C.3       1 PHENYL      0.109309 
      3 O3          7.644477    4.168304   10.635520 O.3       2 PHENYL     -0.299247 
      4 C4          8.973565    4.020360   10.537979 C.2       2 PHENYL      0.303194 
      5 C5          9.656980    3.908874    9.230450 C.2       2 PHENYL      0.105659 
      6 C6          8.960513    4.215557    8.131139 C.2       2 PHENYL      0.072148 
      7 S7         11.379653    3.418499    9.013839 S.3       2 PHENYL     -0.109433 
      8 O8          9.547101    4.173398    6.925424 O.3       2 PHENYL     -0.362718 
      9 O9          9.605144    4.019456   11.579392 O.2       2 PHENYL     -0.258548 
     10 C          11.805831    2.310687   10.413002 C.3       4 PHENYL      0.031846 
     11 C          12.537993    3.051862   11.414655 C.3       4 PHENYL     -0.018741 
     12 C          12.734867    2.315566   12.615771 C.ar      4 PHENYL     -0.082674 
     13 C          11.753027    1.427156   13.062478 C.ar      4 PHENYL     -0.065905 
     14 C          10.674852    1.127151   12.227577 C.ar      4 PHENYL     -0.064928 
     15 C          10.691848    1.580185   10.905868 C.ar      4 PHENYL     -0.070569 
     16 C           5.439184    4.461467    9.665998 C.ar      3 PHENYL     -0.022717 
     17 C           4.456098    4.303838    8.678119 C.ar      3 PHENYL     -0.078362 
     18 C           3.065378    4.793011    8.867994 C.3       3 PHENYL     -0.033855 
     19 C           2.704081    4.800389   10.347919 C.3       3 PHENYL     -0.046139 
     20 C           3.727382    5.637740   11.105450 C.3       3 PHENYL     -0.033855 
     21 C           5.101409    5.126199   10.854289 C.ar      3 PHENYL     -0.078362 
     22 O22         7.080439   -2.093951   10.079714 O.3       6 PHENYL     -0.395006 
     23 H1          6.965740    4.345938    7.311737 H         2 PHENYL      0.036463 
     24 C           6.804192    2.359284    9.245867 C.3       5 PHENYL     -0.018519 
     25 H2          7.458172    5.713104    8.354776 H         2 PHENYL      0.036463 
     26 C           6.019251    0.112470   10.291586 C.3       6 PHENYL     -0.029618 
     27 H3          9.008482    4.435830    6.187066 H         2 PHENYL      0.216929 
     28 H4         12.475431    1.542315    9.989326 H         4 PHENYL      0.046153 
     29 C29         6.233894    1.639238   10.501091 C.3       5 PHENYL     -0.048035 
     30 H5         12.005715    3.971183   11.697637 H         4 PHENYL      0.032116 
     31 H6         13.516653    3.361575   11.007842 H         4 PHENYL      0.032116 
     32 C           7.335691   -0.678845   10.068247 C.3       6 PHENYL      0.044207 
     33 H7         13.636896    2.456209   13.205657 H         4 PHENYL      0.057247 
     34 H8         11.826523    0.976000   14.047255 H         4 PHENYL      0.061440 
     35 H9          9.839050    0.543179   12.599903 H         4 PHENYL      0.061472 
     36 H10         9.860539    1.344475   10.252215 H         4 PHENYL      0.058314 
     37 H11         4.693364    3.824478    7.735437 H         3 PHENYL      0.057553 
     38 H12         2.997168    5.809871    8.448862 H         3 PHENYL      0.030760 
     39 H13         2.363292    4.143619    8.318709 H         3 PHENYL      0.030760 
     40 H14         1.691990    5.215829   10.490674 H         3 PHENYL      0.027116 
     41 H15         2.711924    3.767186   10.735762 H         3 PHENYL      0.027116 
     42 H16         3.685472    6.688947   10.777593 H         3 PHENYL      0.030760 
     43 H17         3.508529    5.602338   12.185808 H         3 PHENYL      0.030760 
     44 H18         5.846780    5.294664   11.624326 H         3 PHENYL      0.057553 
     45 H19         6.490439   -2.372975    9.386074 H         6 PHENYL      0.209395 
     46 H20         6.183281    2.107628    8.373865 H         5 PHENYL      0.029655 
     47 H21         7.811792    1.975761    9.041712 H         5 PHENYL      0.029655 
     48 H22         5.534244   -0.299017   11.192988 H         6 PHENYL      0.028725 
     49 H23         5.341776   -0.054396    9.438335 H         6 PHENYL      0.028725 
     50 H24         5.254980    2.078994   10.753964 H         5 PHENYL      0.026698 
     51 H25         6.906674    1.799406   11.359726 H         5 PHENYL      0.026698 
     52 H26         8.035764   -0.471470   10.892403 H         6 PHENYL      0.055696 
     53 H27         7.821572   -0.400931    9.118662 H         6 PHENYL      0.055696 
@<TRIPOS>BOND
     1   16   17 ar   
     2   16   21 ar   
     3    4    3 1    
     4    4    5 1    
     5    5    6 2    
     6    6    1 1    
     7    5    7 1    
     8    6    8 1    
     9    4    9 2    
    10   10   11 ar   
    11   10   15 ar   
    12   15   14 ar   
    13   14   13 ar   
    14   13   12 ar   
    15   12   11 ar   
    16    7   10 1    
    17   21   20 ar   
    18   20   19 ar   
    19   19   18 ar   
    20   18   17 ar   
    21    2   16 1    
    22   32   22 1    
    23    3    2 1    
    24    1    2 1    
    25    1   23 1    
    26   24   29 1    
    27    1   25 1    
    28   26   32 1    
    29    8   27 1    
    30   10   28 1    
    31    2   24 1    
    32   11   30 1    
    33   11   31 1    
    34   12   33 1    
    35   29   26 1    
    36   13   34 1    
    37   14   35 1    
    38   15   36 1    
    39   17   37 1    
    40   18   38 1    
    41   18   39 1    
    42   19   40 1    
    43   19   41 1    
    44   20   42 1    
    45   20   43 1    
    46   21   44 1    
    47   22   45 1    
    48   24   46 1    
    49   24   47 1    
    50   26   48 1    
    51   26   49 1    
    52   29   50 1    
    53   29   51 1    
    54   32   52 1    
    55   32   53 1    
@<TRIPOS>SUBSTRUCTURE
     1 PHENYL      2 PERM              0 ****  ****    4  
     2 PHENYL     10 PERM              0 ****  ****    3 ROOT 
     3 PHENYL     16 PERM              0 ****  ****    1  
     4 PHENYL     10 PERM              0 ****  ****    1  
     5 PHENYL     24 PERM              0 ****  ****    2  
     6 PHENYL     26 PERM              0 ****  ****    1  
@<TRIPOS>NORMAL
@<TRIPOS>FF_PBC
FORCE_FIELD_SETUP_FEATURE Force Field Setup information
v1.0  0 0.000000 0.000000 0.000000 0.000000 0.000000 0.000000 NONE 0 0 0 0 1 0 0 0 0 0 0 0 0
