#	Name:			T41
#	Creating user name:	ccollar
#	Creation time:		Fri Jul 29 22:24:40 2005

#	Modifying user name:	ccollar
#	Modification time:	Sat Jul 30 00:33:18 2005

@<TRIPOS>MOLECULE
T41
   54    57     7     1     0
SMALL
GASTEIGER


@<TRIPOS>ATOM
      1 C1          7.440500    3.140239   11.320940 C.3       2 PHENYL      0.028875 
      2 C2          7.579154    1.857229   12.189259 C.3       1 PHENYL      0.110177 
      3 O3          8.183776    2.240162   13.441931 O.3       2 PHENYL     -0.299209 
      4 C4          9.353354    2.885235   13.303722 C.2       2 PHENYL      0.303514 
      5 C5          9.778029    3.434703   11.999682 C.2       2 PHENYL      0.109818 
      6 C6          8.854888    3.585823   11.045078 C.2       2 PHENYL      0.072466 
      7 S7         11.474848    3.900300   11.716789 S.3       2 PHENYL     -0.081084 
      8 O8          9.172065    4.127574    9.861445 O.3       2 PHENYL     -0.362708 
      9 O9         10.056888    3.034094   14.288442 O.2       2 PHENYL     -0.258537 
     10 C          12.143400    2.253864   11.716339 C.ar      4 PHENYL      0.015880 
     11 C          12.266013    1.537897   10.518063 C.ar      4 PHENYL     -0.036716 
     12 C          12.797040    0.242667   10.545655 C.ar      4 PHENYL     -0.057786 
     13 C          13.173215   -0.346177   11.755939 C.ar      4 PHENYL     -0.061444 
     14 C          13.036963    0.366401   12.949491 C.ar      4 PHENYL     -0.060693 
     15 C          12.536850    1.670610   12.924533 C.ar      4 PHENYL     -0.047726 
     16 C           6.204752    1.198735   12.492691 C.3       3 PHENYL     -0.014588 
     17 C1          5.216185    2.127888   13.244829 C.3       7 BENZYL     -0.024728 
     18 C2          3.972315    1.321974   13.646350 C.ar      7 BENZYL     -0.047254 
     19 C3          2.896551    1.196129   12.759854 C.ar      7 BENZYL     -0.058571 
     20 C4          1.759083    0.471138   13.127222 C.ar      7 BENZYL     -0.061501 
     21 C5          1.693201   -0.137286   14.383687 C.ar      7 BENZYL     -0.061742 
     22 C           8.475550    0.769407   11.544209 C.ar      5 PHENYL     -0.014873 
     23 C           8.566087    0.589544   10.156953 C.ar      5 PHENYL     -0.055818 
     24 C           9.405150   -0.387956    9.613586 C.ar      5 PHENYL     -0.061411 
     25 C          10.146173   -1.223313   10.451800 C.ar      5 PHENYL     -0.061739 
     26 C          10.058448   -1.061725   11.835739 C.ar      5 PHENYL     -0.061411 
     27 C           9.224692   -0.077387   12.372969 C.ar      5 PHENYL     -0.055818 
     28 C1         11.827488    2.159380    9.184926 C.3       6 CYCLOHEXYL   -0.038657 
     29 H1          6.843039    2.947071   10.418564 H         2 PHENYL      0.036464 
     30 H2          6.952432    3.949503   11.883746 H         2 PHENYL      0.036464 
     31 H3          8.453111    4.217708    9.245971 H         2 PHENYL      0.216929 
     32 C6          2.767649   -0.021294   15.269865 C.ar      7 BENZYL     -0.061501 
     33 C7          3.904313    0.703804   14.900246 C.ar      7 BENZYL     -0.058571 
     34 H4         12.919313   -0.318951    9.625258 H         4 PHENYL      0.062053 
     35 H5         13.570000   -1.356734   11.768897 H         4 PHENYL      0.061767 
     36 H6         13.320064   -0.090777   13.892642 H         4 PHENYL      0.061791 
     37 H7         12.457020    2.232675   13.848839 H         4 PHENYL      0.062870 
     38 H8          6.385998    0.312933   13.123635 H         3 PHENYL      0.029969 
     39 H9          5.742384    0.858139   11.552123 H         3 PHENYL      0.029969 
     40 H10         5.696677    2.546284   14.143454 H         7 BENZYL      0.031417 
     41 H11         4.900972    2.968864   12.608740 H         7 BENZYL      0.031417 
     42 H12         2.940544    1.660562   11.779835 H         7 BENZYL      0.062029 
     43 H13         0.926376    0.380323   12.436294 H         7 BENZYL      0.061766 
     44 H14         0.809459   -0.699023   14.670584 H         7 BENZYL      0.061758 
     45 H15         7.988448    1.197520    9.473001 H         5 PHENYL      0.062120 
     46 H16         9.481614   -0.500427    8.536266 H         5 PHENYL      0.061768 
     47 H17        10.786369   -1.992653   10.031230 H         5 PHENYL      0.061758 
     48 H18        10.637744   -1.701977   12.494103 H         5 PHENYL      0.061768 
     49 H19         9.165541    0.014707   13.452635 H         5 PHENYL      0.062120 
     50 H20        12.175467    1.570052    8.323709 H         6 CYCLOHEXYL    0.027787 
     51 H21        12.232006    3.177569    9.086079 H         6 CYCLOHEXYL    0.027787 
     52 H22        10.730345    2.201604    9.154695 H         6 CYCLOHEXYL    0.027787 
     53 H23         2.719377   -0.494958   16.245747 H         7 BENZYL      0.061766 
     54 H24         4.736002    0.782666   15.593234 H         7 BENZYL      0.062029 
@<TRIPOS>BOND
     1   17   18 1    
     2   18   19 ar   
     3    4    3 1    
     4    4    5 1    
     5    5    6 2    
     6    6    1 1    
     7    5    7 1    
     8    6    8 1    
     9    4    9 2    
    10   10   11 ar   
    11   10   15 ar   
    12   15   14 ar   
    13   14   13 ar   
    14   12   13 ar   
    15   11   12 ar   
    16    7   10 1    
    17   18   33 ar   
    18   33   32 ar   
    19   32   21 ar   
    20   21   20 ar   
    21    2   16 1    
    22   22   23 ar   
    23    3    2 1    
    24    1    2 1    
    25   22   27 ar   
    26   27   26 ar   
    27   26   25 ar   
    28   25   24 ar   
    29   24   23 ar   
    30    2   22 1    
    31    1   29 1    
    32    1   30 1    
    33    8   31 1    
    34   20   19 ar   
    35   16   17 1    
    36   12   34 1    
    37   11   28 1    
    38   13   35 1    
    39   14   36 1    
    40   15   37 1    
    41   16   38 1    
    42   16   39 1    
    43   17   40 1    
    44   17   41 1    
    45   19   42 1    
    46   20   43 1    
    47   21   44 1    
    48   23   45 1    
    49   24   46 1    
    50   25   47 1    
    51   26   48 1    
    52   27   49 1    
    53   28   50 1    
    54   28   51 1    
    55   28   52 1    
    56   32   53 1    
    57   33   54 1    
@<TRIPOS>SUBSTRUCTURE
     1 PHENYL      2 PERM              0 ****  ****    4  
     2 PHENYL     10 PERM              0 ****  ****    3 ROOT 
     3 PHENYL     16 PERM              0 ****  ****    2  
     4 PHENYL     10 PERM              0 ****  ****    2  
     5 PHENYL     22 PERM              0 ****  ****    1  
     6 CYCLOHEXYL    28 PERM              0 ****  ****    1  
     7 BENZYL     17 PERM              0 ****  ****    1  
@<TRIPOS>NORMAL
@<TRIPOS>FF_PBC
FORCE_FIELD_SETUP_FEATURE Force Field Setup information
v1.0  0 0.000000 0.000000 0.000000 0.000000 0.000000 0.000000 NONE 0 0 0 0 1 0 0 0 0 0 0 0 0
