#	Name:			T42
#	Creating user name:	ccollar
#	Creation time:		Fri Jul 29 22:24:40 2005

#	Modifying user name:	ccollar
#	Modification time:	Sat Jul 30 00:14:12 2005

@<TRIPOS>MOLECULE
T42
   57    60     5     1     0
SMALL
GASTEIGER


@<TRIPOS>ATOM
      1 C1          7.531417    4.454640    8.280635 C.3       2 PHENYL      0.033062 
      2 C2          6.861214    3.880981    9.556530 C.3       1 PHENYL      0.134230 
      3 O3          7.437069    4.510032   10.720830 O.3       2 PHENYL     -0.294445 
      4 C4          8.774050    4.434775   10.779575 C.2       2 PHENYL      0.303825 
      5 C5          9.575876    4.078055    9.593471 C.2       2 PHENYL      0.109840 
      6 C6          8.998397    4.117314    8.389213 C.2       2 PHENYL      0.072802 
      7 S7         11.286577    3.616765    9.776596 S.3       2 PHENYL     -0.081066 
      8 O8          9.706345    3.857616    7.281956 O.3       2 PHENYL     -0.362697 
      9 O9          9.328858    4.693357   11.834416 O.2       2 PHENYL     -0.258526 
     10 C          10.971015    1.884105   10.029980 C.ar      4 PHENYL      0.016394 
     11 C          11.261509    0.936664    9.034138 C.ar      4 PHENYL     -0.031066 
     12 C          11.014801   -0.415840    9.307975 C.ar      4 PHENYL     -0.057271 
     13 C          10.469122   -0.821524   10.528504 C.ar      4 PHENYL     -0.061427 
     14 C          10.162016    0.128951   11.502832 C.ar      4 PHENYL     -0.060692 
     15 C          10.418661    1.477260   11.248959 C.ar      4 PHENYL     -0.047709 
     16 C           5.352091    4.178233    9.497025 C.ar      3 PHENYL     -0.018304 
     17 C           4.510361    3.340956    8.753637 C.ar      3 PHENYL     -0.078034 
     18 C           3.028068    3.562200    8.701925 C.3       3 PHENYL     -0.033844 
     19 C           2.551500    4.260719    9.988615 C.3       3 PHENYL     -0.046139 
     20 C           3.346382    5.567046   10.179017 C.3       3 PHENYL     -0.033844 
     21 C           4.820436    5.279841   10.179289 C.ar      3 PHENYL     -0.078034 
     22 C           7.050188    2.361532    9.773968 C.ar      5 PHENYL     -0.010491 
     23 C           7.530573    1.486046    8.790035 C.ar      5 PHENYL     -0.055489 
     24 C           7.713446    0.128721    9.069517 C.ar      5 PHENYL     -0.061401 
     25 C           7.376827   -0.381065   10.325433 C.ar      5 PHENYL     -0.061739 
     26 C           6.881127    0.477986   11.308514 C.ar      5 PHENYL     -0.061401 
     27 C           6.717935    1.837566   11.029394 C.ar      5 PHENYL     -0.055489 
     28 C28        11.847961    1.324890    7.657696 C.3       4 PHENYL     -0.020465 
     29 C29        13.295891    0.783246    7.521311 C.3       4 PHENYL     -0.058616 
     30 C30        10.947771    0.832484    6.491113 C.3       4 PHENYL     -0.058616 
     31 H1          7.049622    4.034509    7.384778 H         2 PHENYL      0.036809 
     32 H2          7.415028    5.548889    8.251962 H         2 PHENYL      0.036809 
     33 H3          9.229972    3.931440    6.462402 H         2 PHENYL      0.216929 
     34 H4         11.246940   -1.179330    8.574957 H         4 PHENYL      0.062071 
     35 H5         10.283006   -1.873989   10.719876 H         4 PHENYL      0.061767 
     36 H6          9.727443   -0.177337   12.449462 H         4 PHENYL      0.061791 
     37 H7         10.188088    2.213462   12.011225 H         4 PHENYL      0.062871 
     38 H8          4.930348    2.515865    8.187195 H         3 PHENYL      0.057563 
     39 H9          2.801190    4.184185    7.821332 H         3 PHENYL      0.030760 
     40 H10         2.511334    2.594798    8.589477 H         3 PHENYL      0.030760 
     41 H11         1.471946    4.478034    9.926348 H         3 PHENYL      0.027116 
     42 H12         2.723293    3.596645   10.852707 H         3 PHENYL      0.027116 
     43 H13         3.130824    6.270165    9.358715 H         3 PHENYL      0.030760 
     44 H14         3.060071    6.042498   11.131608 H         3 PHENYL      0.030760 
     45 H15         5.478866    5.956770   10.714308 H         3 PHENYL      0.057563 
     46 H16         7.765822    1.833235    7.793044 H         5 PHENYL      0.062130 
     47 H17         8.116953   -0.532750    8.308641 H         5 PHENYL      0.061768 
     48 H18         7.501027   -1.438618   10.536884 H         5 PHENYL      0.061758 
     49 H19         6.623148    0.089273   12.288867 H         5 PHENYL      0.061768 
     50 H20         6.325163    2.491169   11.802240 H         5 PHENYL      0.062130 
     51 H21        11.910654    2.418443    7.549959 H         4 PHENYL      0.034378 
     52 H22        13.915300    1.163705    8.348709 H         4 PHENYL      0.023545 
     53 H23        13.741761    1.114077    6.570109 H         4 PHENYL      0.023545 
     54 H24        13.315111   -0.316164    7.547406 H         4 PHENYL      0.023545 
     55 H25        11.319097    1.226716    5.531994 H         4 PHENYL      0.023545 
     56 H26         9.918163    1.190212    6.636960 H         4 PHENYL      0.023545 
     57 H27        10.928227   -0.264117    6.419687 H         4 PHENYL      0.023545 
@<TRIPOS>BOND
     1   16   17 ar   
     2   16   21 ar   
     3    4    3 1    
     4    4    5 1    
     5    5    6 2    
     6    6    1 1    
     7    5    7 1    
     8    6    8 1    
     9    4    9 2    
    10   10   11 ar   
    11   10   15 ar   
    12   15   14 ar   
    13   14   13 ar   
    14   13   12 ar   
    15   12   11 ar   
    16    7   10 1    
    17   21   20 ar   
    18   20   19 ar   
    19   19   18 ar   
    20   18   17 ar   
    21    2   16 1    
    22   22   23 ar   
    23    3    2 1    
    24    1    2 1    
    25   22   27 ar   
    26   27   26 ar   
    27   26   25 ar   
    28   25   24 ar   
    29   24   23 ar   
    30    2   22 1    
    31   11   28 1    
    32   28   29 1    
    33   28   30 1    
    34    1   31 1    
    35    1   32 1    
    36    8   33 1    
    37   12   34 1    
    38   13   35 1    
    39   14   36 1    
    40   15   37 1    
    41   17   38 1    
    42   18   39 1    
    43   18   40 1    
    44   19   41 1    
    45   19   42 1    
    46   20   43 1    
    47   20   44 1    
    48   21   45 1    
    49   23   46 1    
    50   24   47 1    
    51   25   48 1    
    52   26   49 1    
    53   27   50 1    
    54   28   51 1    
    55   29   52 1    
    56   29   53 1    
    57   29   54 1    
    58   30   55 1    
    59   30   56 1    
    60   30   57 1    
@<TRIPOS>SUBSTRUCTURE
     1 PHENYL      2 PERM              0 ****  ****    4  
     2 PHENYL     10 PERM              0 ****  ****    3 ROOT 
     3 PHENYL     16 PERM              0 ****  ****    1  
     4 PHENYL     10 PERM              0 ****  ****    1  
     5 PHENYL     22 PERM              0 ****  ****    1  
@<TRIPOS>NORMAL
@<TRIPOS>FF_PBC
FORCE_FIELD_SETUP_FEATURE Force Field Setup information
v1.0  0 0.000000 0.000000 0.000000 0.000000 0.000000 0.000000 NONE 0 0 0 0 1 0 0 0 0 0 0 0 0
