#	Name:			T44
#	Creating user name:	ccollar
#	Creation time:		Fri Jul 29 22:24:40 2005

#	Modifying user name:	ccollar
#	Modification time:	Sat Jul 30 00:14:39 2005

@<TRIPOS>MOLECULE
T44
   60    63     5     1     0
SMALL
GASTEIGER


@<TRIPOS>ATOM
      1 C1          7.030351    3.275741    9.626604 C.3       2 PHENYL      0.033062 
      2 C2          6.840239    2.428450   10.910054 C.3       1 PHENYL      0.134230 
      3 O3          7.540564    3.074846   11.993428 O.3       2 PHENYL     -0.294445 
      4 C4          8.830978    3.338167   11.739789 C.2       2 PHENYL      0.303825 
      5 C5          9.383627    3.260870   10.371537 C.2       2 PHENYL      0.109840 
      6 C6          8.507238    3.278907    9.356488 C.2       2 PHENYL      0.072802 
      7 S7         11.156494    3.163432   10.154963 S.3       2 PHENYL     -0.081065 
      8 O8          8.857178    3.292744    8.062066 O.3       2 PHENYL     -0.362697 
      9 O9          9.546356    3.679080   12.666713 O.2       2 PHENYL     -0.258526 
     10 C          11.322876    1.414638   10.461372 C.ar      4 PHENYL      0.016402 
     11 C          11.605180    0.514063    9.420437 C.ar      4 PHENYL     -0.030815 
     12 C          11.628807   -0.857500    9.708917 C.ar      4 PHENYL     -0.057262 
     13 C          11.452120   -1.327142   11.012523 C.ar      4 PHENYL     -0.061427 
     14 C          11.216760   -0.423788   12.049233 C.ar      4 PHENYL     -0.060692 
     15 C          11.162114    0.942430   11.768361 C.ar      4 PHENYL     -0.047709 
     16 C           5.336861    2.346706   11.229679 C.ar      3 PHENYL     -0.018304 
     17 C           4.538268    1.413128   10.556721 C.ar      3 PHENYL     -0.078034 
     18 C           3.072683    1.256632   10.865522 C.3       3 PHENYL     -0.033844 
     19 C           2.791884    1.669449   12.329531 C.3       3 PHENYL     -0.046139 
     20 C           3.309235    3.111155   12.553950 C.3       3 PHENYL     -0.033844 
     21 C           4.768735    3.199800   12.184349 C.ar      3 PHENYL     -0.078034 
     22 C           7.403412    0.989783   10.844294 C.ar      5 PHENYL     -0.010491 
     23 C           7.775067    0.352429    9.652169 C.ar      5 PHENYL     -0.055489 
     24 C           8.307423   -0.940002    9.670066 C.ar      5 PHENYL     -0.061401 
     25 C           8.432172   -1.631260   10.877061 C.ar      5 PHENYL     -0.061739 
     26 C           8.056232   -1.010601   12.070152 C.ar      5 PHENYL     -0.061401 
     27 C           7.544275    0.289529   12.048826 C.ar      5 PHENYL     -0.055489 
     28 C28        11.905733    0.971839    7.975874 C.3       4 PHENYL     -0.017881 
     29 C29        13.327640    0.527372    7.525767 C.3       4 PHENYL     -0.049278 
     30 C30        10.814832    0.456792    6.998294 C.3       4 PHENYL     -0.058372 
     31 C31        14.420830    1.048586    8.496136 C.3       4 PHENYL     -0.064736 
     32 H1          6.458599    2.856285    8.784978 H         2 PHENYL      0.036809 
     33 H2          6.687797    4.308138    9.795260 H         2 PHENYL      0.036809 
     34 H3          9.786080    3.347896    7.873134 H         2 PHENYL      0.216929 
     35 H4         11.788703   -1.585595    8.922458 H         4 PHENYL      0.062071 
     36 H5         11.497317   -2.391929   11.220222 H         4 PHENYL      0.061767 
     37 H6         11.076879   -0.780570   13.065063 H         4 PHENYL      0.061791 
     38 H7         10.997035    1.639808   12.581050 H         4 PHENYL      0.062871 
     39 H8          4.972058    0.788818    9.782219 H         3 PHENYL      0.057563 
     40 H9          2.501908    1.894119   10.171679 H         3 PHENYL      0.030760 
     41 H10         2.769237    0.208450   10.708948 H         3 PHENYL      0.030760 
     42 H11         1.710719    1.615403   12.540298 H         3 PHENYL      0.027116 
     43 H12         3.315724    0.980189   13.013142 H         3 PHENYL      0.027116 
     44 H13         2.748384    3.821421   11.925829 H         3 PHENYL      0.030760 
     45 H14         3.174818    3.395506   13.610491 H         3 PHENYL      0.030760 
     46 H15         5.378381    3.955709   12.668850 H         3 PHENYL      0.057563 
     47 H16         7.654639    0.837786    8.692415 H         5 PHENYL      0.062130 
     48 H17         8.622918   -1.410720    8.743802 H         5 PHENYL      0.061768 
     49 H18         8.819419   -2.645320   10.887760 H         5 PHENYL      0.061758 
     50 H19         8.161888   -1.538303   13.013061 H         5 PHENYL      0.061768 
     51 H20         7.251045    0.756014   12.984275 H         5 PHENYL      0.062130 
     52 H21        11.905307    2.069001    7.903873 H         4 PHENYL      0.034637 
     53 H22        13.530111    0.927579    6.517749 H         4 PHENYL      0.026834 
     54 H23        13.395416   -0.569854    7.464342 H         4 PHENYL      0.026834 
     55 H24        10.979077    0.867766    5.989850 H         4 PHENYL      0.023554 
     56 H25         9.820818    0.775020    7.344627 H         4 PHENYL      0.023554 
     57 H26        10.821922   -0.640251    6.925755 H         4 PHENYL      0.023554 
     58 H27        14.287239    0.621755    9.502193 H         4 PHENYL      0.022995 
     59 H28        14.377511    2.146368    8.570710 H         4 PHENYL      0.022995 
     60 H29        15.419144    0.762323    8.129078 H         4 PHENYL      0.022995 
@<TRIPOS>BOND
     1   16   17 ar   
     2   16   21 ar   
     3    4    3 1    
     4    4    5 1    
     5    5    6 2    
     6    6    1 1    
     7    5    7 1    
     8    6    8 1    
     9    4    9 2    
    10   10   11 ar   
    11   10   15 ar   
    12   15   14 ar   
    13   14   13 ar   
    14   13   12 ar   
    15   12   11 ar   
    16    7   10 1    
    17   21   20 ar   
    18   20   19 ar   
    19   19   18 ar   
    20   18   17 ar   
    21    2   16 1    
    22   22   23 ar   
    23    3    2 1    
    24    1    2 1    
    25   22   27 ar   
    26   27   26 ar   
    27   26   25 ar   
    28   25   24 ar   
    29   24   23 ar   
    30    2   22 1    
    31   11   28 1    
    32   28   29 1    
    33   28   30 1    
    34   29   31 1    
    35    1   32 1    
    36    1   33 1    
    37    8   34 1    
    38   12   35 1    
    39   13   36 1    
    40   14   37 1    
    41   15   38 1    
    42   17   39 1    
    43   18   40 1    
    44   18   41 1    
    45   19   42 1    
    46   19   43 1    
    47   20   44 1    
    48   20   45 1    
    49   21   46 1    
    50   23   47 1    
    51   24   48 1    
    52   25   49 1    
    53   26   50 1    
    54   27   51 1    
    55   28   52 1    
    56   29   53 1    
    57   29   54 1    
    58   30   55 1    
    59   30   56 1    
    60   30   57 1    
    61   31   58 1    
    62   31   59 1    
    63   31   60 1    
@<TRIPOS>SUBSTRUCTURE
     1 PHENYL      2 PERM              0 ****  ****    4  
     2 PHENYL     10 PERM              0 ****  ****    3 ROOT 
     3 PHENYL     16 PERM              0 ****  ****    1  
     4 PHENYL     10 PERM              0 ****  ****    1  
     5 PHENYL     22 PERM              0 ****  ****    1  
@<TRIPOS>NORMAL
@<TRIPOS>FF_PBC
FORCE_FIELD_SETUP_FEATURE Force Field Setup information
v1.0  0 0.000000 0.000000 0.000000 0.000000 0.000000 0.000000 NONE 0 0 0 0 1 0 0 0 0 0 0 0 0
