#	Name:			T45
#	Creating user name:	ccollar
#	Creation time:		Fri Jul 29 22:24:40 2005

#	Modifying user name:	ccollar
#	Modification time:	Sat Jul 30 00:38:39 2005

@<TRIPOS>MOLECULE
T45
   63    66     7     1     0
SMALL
GASTEIGER


@<TRIPOS>ATOM
      1 C1          7.123813    3.755963   11.061031 C.3       2 PHENYL      0.028875 
      2 C2          7.382539    2.807552   12.264616 C.3       1 PHENYL      0.110177 
      3 O3          8.054259    3.576723   13.282344 O.3       2 PHENYL     -0.299209 
      4 C4          9.166072    4.196116   12.853143 C.2       2 PHENYL      0.303514 
      5 C5          9.500077    4.275935   11.414266 C.2       2 PHENYL      0.109818 
      6 C6          8.497658    4.105546   10.544825 C.2       2 PHENYL      0.072466 
      7 S7         11.172039    4.614846   10.864733 S.3       2 PHENYL     -0.081066 
      8 O8          8.694087    4.241405    9.228401 O.3       2 PHENYL     -0.362708 
      9 O9          9.884067    4.731290   13.680377 O.2       2 PHENYL     -0.258537 
     10 C          11.946034    3.070110   11.302907 C.ar      4 PHENYL      0.016402 
     11 C          12.365882    2.150708   10.326464 C.ar      4 PHENYL     -0.030815 
     12 C          12.696054    0.851981   10.742394 C.ar      4 PHENYL     -0.057262 
     13 C          12.796895    0.526424   12.097021 C.ar      4 PHENYL     -0.061427 
     14 C          12.542466    1.500533   13.062282 C.ar      4 PHENYL     -0.060692 
     15 C          12.134935    2.772219   12.656624 C.ar      4 PHENYL     -0.047709 
     16 C           6.061891    2.245951   12.862259 C.3       3 PHENYL     -0.014588 
     17 C1          5.083664    3.341646   13.361197 C.3       7 BENZYL     -0.024728 
     18 C2          3.907974    2.674560   14.089755 C.ar      7 BENZYL     -0.047254 
     19 C3          2.777378    2.261654   13.375473 C.ar      7 BENZYL     -0.058571 
     20 C4          1.702213    1.662835   14.038678 C.ar      7 BENZYL     -0.061501 
     21 C5          1.754009    1.468740   15.421747 C.ar      7 BENZYL     -0.061742 
     22 C           8.288284    1.598032   11.921058 C.ar      5 PHENYL     -0.014873 
     23 C           8.418076    1.080703   10.624308 C.ar      5 PHENYL     -0.055818 
     24 C           9.271864    0.004588   10.364590 C.ar      5 PHENYL     -0.061411 
     25 C           9.974659   -0.602231   11.407338 C.ar      5 PHENYL     -0.061739 
     26 C           9.838343   -0.110194   12.706892 C.ar      5 PHENYL     -0.061411 
     27 C           9.012181    0.989160   12.954881 C.ar      5 PHENYL     -0.055818 
     28 C1         12.521901    2.494072    8.825128 C.3       6 CYCLOHEXYL   -0.017881 
     29 C29        13.604970    3.588998    8.606123 C.3       6 CYCLOHEXYL   -0.049278 
     30 C30        11.188254    2.852187    8.117257 C.3       6 CYCLOHEXYL   -0.058372 
     31 C31        14.967489    3.185384    9.229915 C.3       6 CYCLOHEXYL   -0.064736 
     32 C6          2.883835    1.871985   16.138773 C.ar      7 BENZYL     -0.061501 
     33 C7          3.957898    2.470507   15.473534 C.ar      7 BENZYL     -0.058571 
     34 H1          6.470218    3.271427   10.320733 H         2 PHENYL      0.036464 
     35 H2          6.644616    4.692903   11.381179 H         2 PHENYL      0.036464 
     36 H3          7.926046    4.126818    8.679924 H         2 PHENYL      0.216929 
     37 H4         12.888136    0.068701   10.016402 H         4 PHENYL      0.062071 
     38 H5         13.074080   -0.479011   12.399132 H         4 PHENYL      0.061767 
     39 H6         12.657781    1.271083   14.117176 H         4 PHENYL      0.061791 
     40 H7         11.970768    3.534267   13.407988 H         4 PHENYL      0.062871 
     41 H8          6.318805    1.606331   13.722376 H         3 PHENYL      0.029969 
     42 H9          5.555402    1.617952   12.111529 H         3 PHENYL      0.029969 
     43 H10         5.603087    4.031923   14.044704 H         7 BENZYL      0.031417 
     44 H11         4.688790    3.932887   12.521122 H         7 BENZYL      0.031417 
     45 H12         2.730004    2.403107   12.300416 H         7 BENZYL      0.062029 
     46 H13         0.826428    1.348015   13.479332 H         7 BENZYL      0.061766 
     47 H14         0.918654    1.005440   15.937951 H         7 BENZYL      0.061758 
     48 H15         7.862317    1.495459    9.793367 H         5 PHENYL      0.062120 
     49 H16         9.388671   -0.363875    9.349811 H         5 PHENYL      0.061768 
     50 H17        10.622857   -1.450214   11.208859 H         5 PHENYL      0.061758 
     51 H18        10.375611   -0.581419   13.524298 H         5 PHENYL      0.061768 
     52 H19         8.937441    1.364736   13.970452 H         5 PHENYL      0.062120 
     53 H20        12.894206    1.597257    8.300508 H         6 CYCLOHEXYL    0.034637 
     54 H21        13.283739    4.544234    9.048452 H         6 CYCLOHEXYL    0.026834 
     55 H22        13.741861    3.750859    7.523512 H         6 CYCLOHEXYL    0.026834 
     56 H23        11.281864    2.720873    7.027292 H         6 CYCLOHEXYL    0.023554 
     57 H24        10.920162    3.901301    8.288407 H         6 CYCLOHEXYL    0.023554 
     58 H25        10.377829    2.200927    8.478926 H         6 CYCLOHEXYL    0.023554 
     59 H26        15.317772    2.231463    8.806084 H         6 CYCLOHEXYL    0.022995 
     60 H27        14.881300    3.075940   10.322135 H         6 CYCLOHEXYL    0.022995 
     61 H28        15.722370    3.959374    9.019118 H         6 CYCLOHEXYL    0.022995 
     62 H29         2.927278    1.719903   17.213010 H         7 BENZYL      0.061766 
     63 H30         4.833353    2.774829   16.038495 H         7 BENZYL      0.062029 
@<TRIPOS>BOND
     1   17   18 1    
     2   18   19 ar   
     3    4    3 1    
     4    4    5 1    
     5    5    6 2    
     6    6    1 1    
     7    5    7 1    
     8    6    8 1    
     9    4    9 2    
    10   10   11 ar   
    11   10   15 ar   
    12   15   14 ar   
    13   14   13 ar   
    14   12   13 ar   
    15   11   12 ar   
    16    7   10 1    
    17   18   33 ar   
    18   33   32 ar   
    19   32   21 ar   
    20   21   20 ar   
    21    2   16 1    
    22   22   23 ar   
    23    3    2 1    
    24    1    2 1    
    25   22   27 ar   
    26   27   26 ar   
    27   26   25 ar   
    28   25   24 ar   
    29   24   23 ar   
    30    2   22 1    
    31   28   29 1    
    32   28   30 1    
    33   29   31 1    
    34   20   19 ar   
    35   16   17 1    
    36    1   34 1    
    37   11   28 1    
    38    1   35 1    
    39    8   36 1    
    40   12   37 1    
    41   13   38 1    
    42   14   39 1    
    43   15   40 1    
    44   16   41 1    
    45   16   42 1    
    46   17   43 1    
    47   17   44 1    
    48   19   45 1    
    49   20   46 1    
    50   21   47 1    
    51   23   48 1    
    52   24   49 1    
    53   25   50 1    
    54   26   51 1    
    55   27   52 1    
    56   28   53 1    
    57   29   54 1    
    58   29   55 1    
    59   30   56 1    
    60   30   57 1    
    61   30   58 1    
    62   31   59 1    
    63   31   60 1    
    64   31   61 1    
    65   32   62 1    
    66   33   63 1    
@<TRIPOS>SUBSTRUCTURE
     1 PHENYL      2 PERM              0 ****  ****    4  
     2 PHENYL     10 PERM              0 ****  ****    3 ROOT 
     3 PHENYL     16 PERM              0 ****  ****    2  
     4 PHENYL     10 PERM              0 ****  ****    2  
     5 PHENYL     22 PERM              0 ****  ****    1  
     6 CYCLOHEXYL    28 PERM              0 ****  ****    1  
     7 BENZYL     17 PERM              0 ****  ****    1  
@<TRIPOS>NORMAL
@<TRIPOS>FF_PBC
FORCE_FIELD_SETUP_FEATURE Force Field Setup information
v1.0  0 0.000000 0.000000 0.000000 0.000000 0.000000 0.000000 NONE 0 0 0 0 1 0 0 0 0 0 0 0 0
