#	Name:			T46
#	Creating user name:	ccollar
#	Creation time:		Fri Jul 29 22:24:40 2005

#	Modifying user name:	ccollar
#	Modification time:	Sat Jul 30 00:18:09 2005

@<TRIPOS>MOLECULE
T46
   61    65     5     1     0
SMALL
GASTEIGER


@<TRIPOS>ATOM
      1 C1          6.627911    2.282774    9.648041 C.3       2 PHENYL      0.033062 
      2 C2          6.557882    1.388381   10.913532 C.3       1 PHENYL      0.134230 
      3 O3          7.030084    2.136547   12.053201 O.3       2 PHENYL     -0.294445 
      4 C4          8.248498    2.669661   11.888435 C.2       2 PHENYL      0.303825 
      5 C5          8.858955    2.789643   10.550369 C.2       2 PHENYL      0.109840 
      6 C6          8.079990    2.653076    9.473660 C.2       2 PHENYL      0.072802 
      7 S7         10.599998    3.123542   10.382068 S.3       2 PHENYL     -0.081065 
      8 O8          8.575411    2.836696    8.243066 O.3       2 PHENYL     -0.362697 
      9 O9          8.841718    3.086694   12.869010 O.2       2 PHENYL     -0.258526 
     10 C          11.118635    1.423829   10.495594 C.ar      4 PHENYL      0.016411 
     11 C          11.571481    0.722762    9.366005 C.ar      4 PHENYL     -0.030547 
     12 C          12.031825   -0.590679    9.531717 C.ar      4 PHENYL     -0.057254 
     13 C          11.978451   -1.225202   10.775129 C.ar      4 PHENYL     -0.061427 
     14 C          11.480042   -0.538729   11.883154 C.ar      4 PHENYL     -0.060692 
     15 C          11.066421    0.786982   11.740018 C.ar      4 PHENYL     -0.047708 
     16 C           5.094185    0.967246   11.136404 C.ar      3 PHENYL     -0.018304 
     17 C           4.575256   -0.126956   10.432260 C.ar      3 PHENYL     -0.078034 
     18 C           3.160614   -0.614158   10.649911 C.3       3 PHENYL     -0.033844 
     19 C           2.696628   -0.269870   12.091724 C.3       3 PHENYL     -0.046139 
     20 C           2.858958    1.259330   12.319292 C.3       3 PHENYL     -0.033844 
     21 C           4.286968    1.675550   12.035540 C.ar      3 PHENYL     -0.078034 
     22 C           7.433737    0.113921   10.877591 C.ar      5 PHENYL     -0.010491 
     23 C           8.057848   -0.377730    9.722217 C.ar      5 PHENYL     -0.055489 
     24 C           8.850357   -1.528162    9.775906 C.ar      5 PHENYL     -0.061401 
     25 C           9.017503   -2.212770   10.981589 C.ar      5 PHENYL     -0.061739 
     26 C           8.396569   -1.735414   12.137495 C.ar      5 PHENYL     -0.061401 
     27 C           7.605943   -0.584702   12.079126 C.ar      5 PHENYL     -0.055489 
     28 C28        11.595612    1.336323    7.949159 C.3       4 PHENYL     -0.014800 
     29 C29        13.030718    1.371228    7.340154 C.3       4 PHENYL     -0.046173 
     30 C30        10.726262    0.545681    6.931633 C.3       4 PHENYL     -0.046173 
     31 C31        12.935927    0.584225    6.008433 C.3       4 PHENYL     -0.052491 
     32 C32        11.460757    0.769592    5.591481 C.3       4 PHENYL     -0.052491 
     33 H1          6.212866    1.736142    8.787557 H         2 PHENYL      0.036809 
     34 H2          6.035517    3.198795    9.795303 H         2 PHENYL      0.036809 
     35 H3          7.947027    2.759804    7.533463 H         2 PHENYL      0.216929 
     36 H4         12.443109   -1.138335    8.690618 H         4 PHENYL      0.062071 
     37 H5         12.322949   -2.249456   10.880370 H         4 PHENYL      0.061767 
     38 H6         11.416103   -1.031055   12.848704 H         4 PHENYL      0.061791 
     39 H7         10.705435    1.324994   12.609301 H         4 PHENYL      0.062871 
     40 H8          5.190181   -0.639983    9.699713 H         3 PHENYL      0.057563 
     41 H9          2.506681   -0.124989    9.910662 H         3 PHENYL      0.030760 
     42 H10         3.113836   -1.704301   10.493552 H         3 PHENYL      0.030760 
     43 H11         1.644607   -0.567468   12.235607 H         3 PHENYL      0.027116 
     44 H12         3.318387   -0.818197   12.819246 H         3 PHENYL      0.027116 
     45 H13         2.192714    1.819377   11.644116 H         3 PHENYL      0.030760 
     46 H14         2.597346    1.511434   13.359960 H         3 PHENYL      0.030760 
     47 H15         4.677698    2.553800   12.539373 H         3 PHENYL      0.057563 
     48 H16         7.941014    0.111765    8.764156 H         5 PHENYL      0.062130 
     49 H17         9.337877   -1.894701    8.878093 H         5 PHENYL      0.061768 
     50 H18         9.627087   -3.110235   11.020318 H         5 PHENYL      0.061758 
     51 H19         8.528043   -2.258278   13.079873 H         5 PHENYL      0.061768 
     52 H20         7.119341   -0.233669   12.984024 H         5 PHENYL      0.062130 
     53 H21        11.207151    2.366816    7.945615 H         4 PHENYL      0.034913 
     54 H22        13.799528    0.943494    8.003801 H         4 PHENYL      0.027107 
     55 H23        13.324564    2.412198    7.119427 H         4 PHENYL      0.027107 
     56 H24         9.679149    0.883651    6.893879 H         4 PHENYL      0.027107 
     57 H25        10.723888   -0.533105    7.148475 H         4 PHENYL      0.027107 
     58 H26        13.127346   -0.486999    6.190004 H         4 PHENYL      0.026547 
     59 H27        13.643667    0.942075    5.242473 H         4 PHENYL      0.026547 
     60 H28        11.145579    0.064989    4.804238 H         4 PHENYL      0.026547 
     61 H29        11.296110    1.801586    5.238149 H         4 PHENYL      0.026547 
@<TRIPOS>BOND
     1   16   17 ar   
     2   16   21 ar   
     3    4    3 1    
     4    4    5 1    
     5    5    6 2    
     6    6    1 1    
     7    5    7 1    
     8    6    8 1    
     9    4    9 2    
    10   10   11 ar   
    11   10   15 ar   
    12   15   14 ar   
    13   14   13 ar   
    14   13   12 ar   
    15   12   11 ar   
    16    7   10 1    
    17   21   20 ar   
    18   20   19 ar   
    19   19   18 ar   
    20   18   17 ar   
    21    2   16 1    
    22   22   23 ar   
    23    3    2 1    
    24    1    2 1    
    25   22   27 ar   
    26   27   26 ar   
    27   26   25 ar   
    28   25   24 ar   
    29   24   23 ar   
    30    2   22 1    
    31   11   28 1    
    32   28   29 1    
    33   28   30 1    
    34   29   31 1    
    35   31   32 1    
    36   30   32 1    
    37    1   33 1    
    38    1   34 1    
    39    8   35 1    
    40   12   36 1    
    41   13   37 1    
    42   14   38 1    
    43   15   39 1    
    44   17   40 1    
    45   18   41 1    
    46   18   42 1    
    47   19   43 1    
    48   19   44 1    
    49   20   45 1    
    50   20   46 1    
    51   21   47 1    
    52   23   48 1    
    53   24   49 1    
    54   25   50 1    
    55   26   51 1    
    56   27   52 1    
    57   28   53 1    
    58   29   54 1    
    59   29   55 1    
    60   30   56 1    
    61   30   57 1    
    62   31   58 1    
    63   31   59 1    
    64   32   60 1    
    65   32   61 1    
@<TRIPOS>SUBSTRUCTURE
     1 PHENYL      2 PERM              0 ****  ****    4  
     2 PHENYL     10 PERM              0 ****  ****    3 ROOT 
     3 PHENYL     16 PERM              0 ****  ****    1  
     4 PHENYL     10 PERM              0 ****  ****    1  
     5 PHENYL     22 PERM              0 ****  ****    1  
@<TRIPOS>NORMAL
@<TRIPOS>FF_PBC
FORCE_FIELD_SETUP_FEATURE Force Field Setup information
v1.0  0 0.000000 0.000000 0.000000 0.000000 0.000000 0.000000 NONE 0 0 0 0 1 0 0 0 0 0 0 0 0
