#	Name:			T47
#	Creating user name:	ccollar
#	Creation time:		Fri Jul 29 22:24:40 2005

#	Modifying user name:	ccollar
#	Modification time:	Sat Jul 30 00:20:25 2005

@<TRIPOS>MOLECULE
T47
   64    68     6     1     0
SMALL
GASTEIGER


@<TRIPOS>ATOM
      1 C1          6.654886    2.236397    9.625379 C.3       2 PHENYL      0.033062 
      2 C2          6.550630    1.334817   10.883527 C.3       1 PHENYL      0.134230 
      3 O3          6.901303    2.107857   12.050769 O.3       2 PHENYL     -0.294445 
      4 C4          8.092868    2.716002   11.967134 C.2       2 PHENYL      0.303825 
      5 C5          8.785256    2.873798   10.673721 C.2       2 PHENYL      0.109840 
      6 C6          8.095463    2.679526    9.545888 C.2       2 PHENYL      0.072802 
      7 S7         10.506902    3.328711   10.632075 S.3       2 PHENYL     -0.081065 
      8 O8          8.669339    2.871135    8.350574 O.3       2 PHENYL     -0.362697 
      9 O9          8.592508    3.166315   12.984466 O.2       2 PHENYL     -0.258526 
     10 C          11.133439    1.665586   10.730446 C.ar      4 PHENYL      0.016411 
     11 C          11.702796    1.032598    9.612580 C.ar      4 PHENYL     -0.030547 
     12 C          12.215221   -0.262878    9.769926 C.ar      4 PHENYL     -0.057254 
     13 C          12.134916   -0.931999   10.993750 C.ar      4 PHENYL     -0.061427 
     14 C          11.538141   -0.307675   12.089603 C.ar      4 PHENYL     -0.060692 
     15 C          11.044792    0.990746   11.952429 C.ar      4 PHENYL     -0.047708 
     16 C           5.101837    0.830014   11.010567 C.ar      3 PHENYL     -0.018304 
     17 C           4.693682   -0.290574   10.275523 C.ar      3 PHENYL     -0.078034 
     18 C           3.294059   -0.863838   10.401662 C.3       3 PHENYL     -0.033844 
     19 C           2.715977   -0.548931   11.814940 C.3       3 PHENYL     -0.046139 
     20 C           2.775539    0.992902   12.046741 C.3       3 PHENYL     -0.033844 
     21 C           4.198963    1.490119   11.853862 C.ar      3 PHENYL     -0.078034 
     22 C           7.501448    0.114977   10.899294 C.ar      5 PHENYL     -0.010491 
     23 C           8.191392   -0.349072    9.770689 C.ar      5 PHENYL     -0.055489 
     24 C           9.074766   -1.428087    9.866791 C.ar      5 PHENYL     -0.061401 
     25 C           9.241948   -2.091608   11.084269 C.ar      5 PHENYL     -0.061739 
     26 C           8.542638   -1.653309   12.210772 C.ar      5 PHENYL     -0.061401 
     27 C           7.677595   -0.560014   12.113555 C.ar      5 PHENYL     -0.055489 
     28 C1         11.791602    1.710818    8.226205 C.3       6 CYCLOHEXYL   -0.014800 
     29 C2         11.078689    0.880829    7.123131 C.3       6 CYCLOHEXYL   -0.046174 
     30 C3         11.147949    1.621426    5.761666 C.3       6 CYCLOHEXYL   -0.052508 
     31 C4         12.625665    1.882800    5.368522 C.3       6 CYCLOHEXYL   -0.053021 
     32 C5         13.344492    2.708613    6.467483 C.3       6 CYCLOHEXYL   -0.052508 
     33 C6         13.269618    1.976476    7.833779 C.3       6 CYCLOHEXYL   -0.046174 
     34 H1          6.316100    1.680739    8.737912 H         2 PHENYL      0.036809 
     35 H2          6.011984    3.122421    9.741116 H         2 PHENYL      0.036809 
     36 H3          8.104849    2.738017    7.597125 H         2 PHENYL      0.216929 
     37 H4         12.690338   -0.775267    8.941860 H         4 PHENYL      0.062071 
     38 H5         12.534894   -1.936522   11.093472 H         4 PHENYL      0.061767 
     39 H6         11.458578   -0.826754   13.039844 H         4 PHENYL      0.061791 
     40 H7         10.591612    1.478598   12.808446 H         4 PHENYL      0.062871 
     41 H8          5.382744   -0.764759    9.584205 H         3 PHENYL      0.057563 
     42 H9          2.661263   -0.412938    9.620945 H         3 PHENYL      0.030760 
     43 H10         3.322603   -1.954524   10.245289 H         3 PHENYL      0.030760 
     44 H11         1.675842   -0.906826   11.891023 H         3 PHENYL      0.027116 
     45 H12         3.320545   -1.060272   12.582577 H         3 PHENYL      0.027116 
     46 H13         2.124155    1.513116   11.326794 H         3 PHENYL      0.030760 
     47 H14         2.432839    1.230264   13.067044 H         3 PHENYL      0.030760 
     48 H15         4.505586    2.388182   12.380365 H         3 PHENYL      0.057563 
     49 H16         8.054819    0.108743    8.800466 H         5 PHENYL      0.062130 
     50 H17         9.631771   -1.753543    8.993235 H         5 PHENYL      0.061768 
     51 H18         9.912355   -2.942518   11.155011 H         5 PHENYL      0.061758 
     52 H19         8.671725   -2.161822   13.161292 H         5 PHENYL      0.061768 
     53 H20         7.136069   -0.235986   12.996975 H         5 PHENYL      0.062130 
     54 H21        11.291749    2.689475    8.243857 H         6 CYCLOHEXYL    0.034913 
     55 H22        10.025998    0.723317    7.403565 H         6 CYCLOHEXYL    0.027107 
     56 H23        11.546963   -0.107437    7.002622 H         6 CYCLOHEXYL    0.027107 
     57 H24        10.658958    1.012875    4.982251 H         6 CYCLOHEXYL    0.026546 
     58 H25        10.608000    2.580440    5.830812 H         6 CYCLOHEXYL    0.026546 
     59 H26        13.146319    0.920340    5.232757 H         6 CYCLOHEXYL    0.026529 
     60 H27        12.663086    2.428823    4.410810 H         6 CYCLOHEXYL    0.026529 
     61 H28        14.400134    2.861083    6.186020 H         6 CYCLOHEXYL    0.026546 
     62 H29        12.869506    3.700262    6.551048 H         6 CYCLOHEXYL    0.026546 
     63 H30        13.825448    1.028767    7.761274 H         6 CYCLOHEXYL    0.027107 
     64 H31        13.748899    2.594351    8.611524 H         6 CYCLOHEXYL    0.027107 
@<TRIPOS>BOND
     1   16   17 ar   
     2   16   21 ar   
     3    4    3 1    
     4    4    5 1    
     5    5    6 2    
     6    6    1 1    
     7    5    7 1    
     8    6    8 1    
     9    4    9 2    
    10   10   11 ar   
    11   10   15 ar   
    12   15   14 ar   
    13   14   13 ar   
    14   12   13 ar   
    15   11   12 ar   
    16    7   10 1    
    17   21   20 ar   
    18   20   19 ar   
    19   19   18 ar   
    20   18   17 ar   
    21    2   16 1    
    22   22   23 ar   
    23    3    2 1    
    24    1    2 1    
    25   22   27 ar   
    26   27   26 ar   
    27   26   25 ar   
    28   25   24 ar   
    29   24   23 ar   
    30    2   22 1    
    31   28   29 1    
    32   28   33 1    
    33   33   32 1    
    34   32   31 1    
    35   31   30 1    
    36   30   29 1    
    37   11   28 1    
    38    1   34 1    
    39    1   35 1    
    40    8   36 1    
    41   12   37 1    
    42   13   38 1    
    43   14   39 1    
    44   15   40 1    
    45   17   41 1    
    46   18   42 1    
    47   18   43 1    
    48   19   44 1    
    49   19   45 1    
    50   20   46 1    
    51   20   47 1    
    52   21   48 1    
    53   23   49 1    
    54   24   50 1    
    55   25   51 1    
    56   26   52 1    
    57   27   53 1    
    58   28   54 1    
    59   29   55 1    
    60   29   56 1    
    61   30   57 1    
    62   30   58 1    
    63   31   59 1    
    64   31   60 1    
    65   32   61 1    
    66   32   62 1    
    67   33   63 1    
    68   33   64 1    
@<TRIPOS>SUBSTRUCTURE
     1 PHENYL      2 PERM              0 ****  ****    4  
     2 PHENYL     10 PERM              0 ****  ****    3 ROOT 
     3 PHENYL     16 PERM              0 ****  ****    1  
     4 PHENYL     10 PERM              0 ****  ****    2  
     5 PHENYL     22 PERM              0 ****  ****    1  
     6 CYCLOHEXYL    28 PERM              0 ****  ****    1  
@<TRIPOS>NORMAL
@<TRIPOS>FF_PBC
FORCE_FIELD_SETUP_FEATURE Force Field Setup information
v1.0  0 0.000000 0.000000 0.000000 0.000000 0.000000 0.000000 NONE 0 0 0 0 1 0 0 0 0 0 0 0 0
