#	Name:			T48
#	Creating user name:	ccollar
#	Creation time:		Fri Jul 29 22:24:40 2005

#	Modifying user name:	ccollar
#	Modification time:	Sat Jul 30 00:41:04 2005

@<TRIPOS>MOLECULE
T48
   67    71     7     1     0
SMALL
GASTEIGER


@<TRIPOS>ATOM
      1 C1          7.512080    3.652699   10.997660 C.3       2 PHENYL      0.028875 
      2 C2          7.610137    2.738782   12.252884 C.3       1 PHENYL      0.110177 
      3 O3          8.170926    3.520347   13.329110 O.3       2 PHENYL     -0.299209 
      4 C4          9.337625    4.115092   13.029571 C.2       2 PHENYL      0.303514 
      5 C5          9.807143    4.233406   11.634557 C.2       2 PHENYL      0.109818 
      6 C6          8.929830    4.029164   10.647853 C.2       2 PHENYL      0.072466 
      7 S7         11.500754    4.666425   11.282960 S.3       2 PHENYL     -0.081066 
      8 O8          9.293600    4.169408    9.366128 O.3       2 PHENYL     -0.362708 
      9 O9         10.003165    4.583447   13.937752 O.2       2 PHENYL     -0.258537 
     10 C          12.198110    3.059833   11.588962 C.ar      4 PHENYL      0.016411 
     11 C          12.448074    2.161190   10.538172 C.ar      4 PHENYL     -0.030547 
     12 C          12.924332    0.881614   10.856477 C.ar      4 PHENYL     -0.057254 
     13 C          13.211144    0.521566   12.175691 C.ar      4 PHENYL     -0.061427 
     14 C          13.000173    1.436464   13.208050 C.ar      4 PHENYL     -0.060692 
     15 C          12.486639    2.699419   12.908910 C.ar      4 PHENYL     -0.047708 
     16 C           6.220210    2.220908   12.717616 C.3       3 PHENYL     -0.014588 
     17 C1          5.224091    3.345602   13.104717 C.3       7 BENZYL     -0.024728 
     18 C2          3.965382    2.715525   13.718623 C.ar      7 BENZYL     -0.047254 
     19 C3          2.904406    2.315242   12.898205 C.ar      7 BENZYL     -0.058571 
     20 C4          1.753067    1.751803   13.456192 C.ar      7 BENZYL     -0.061501 
     21 C5          1.658443    1.580191   14.839963 C.ar      7 BENZYL     -0.061742 
     22 C           8.498755    1.490202   12.021624 C.ar      5 PHENYL     -0.014873 
     23 C           8.457042    0.765134   10.822916 C.ar      5 PHENYL     -0.055818 
     24 C           9.320338   -0.312588   10.603579 C.ar      5 PHENYL     -0.061411 
     25 C          10.207663   -0.715559   11.603195 C.ar      5 PHENYL     -0.061739 
     26 C          10.206655   -0.049336   12.830010 C.ar      5 PHENYL     -0.061411 
     27 C           9.363248    1.046452   13.032277 C.ar      5 PHENYL     -0.055818 
     28 C1         12.228578    2.532246    9.053236 C.3       6 CYCLOHEXYL   -0.014800 
     29 C2         11.133981    1.647518    8.399136 C.3       6 CYCLOHEXYL   -0.046174 
     30 C3         10.905011    2.066317    6.923217 C.3       6 CYCLOHEXYL   -0.052508 
     31 C4         12.230190    1.967196    6.123533 C.3       6 CYCLOHEXYL   -0.053021 
     32 C6          2.718377    1.970210   15.663150 C.ar      7 BENZYL     -0.061501 
     33 C7          3.868933    2.533100   15.102967 C.ar      7 BENZYL     -0.058571 
     34 C5         13.323107    2.857148    6.771467 C.3       6 CYCLOHEXYL   -0.052508 
     35 C6         13.553899    2.440098    8.248304 C.3       6 CYCLOHEXYL   -0.046174 
     36 H1          6.967744    3.160919   10.179897 H         2 PHENYL      0.036464 
     37 H2          6.988501    4.590449   11.234048 H         2 PHENYL      0.036464 
     38 H3          8.604775    4.029541    8.726036 H         2 PHENYL      0.216929 
     39 H4         13.082850    0.140761   10.081777 H         4 PHENYL      0.062071 
     40 H5         13.596214   -0.468795   12.399160 H         4 PHENYL      0.061767 
     41 H6         13.230784    1.167747   14.234396 H         4 PHENYL      0.061791 
     42 H7         12.313254    3.407854   13.711886 H         4 PHENYL      0.062871 
     43 H8          6.379596    1.587354   13.605958 H         3 PHENYL      0.029969 
     44 H9          5.771942    1.595213   11.928982 H         3 PHENYL      0.029969 
     45 H10         5.687709    4.033333   13.829562 H         7 BENZYL      0.031417 
     46 H11         4.928929    3.934500   12.223150 H         7 BENZYL      0.031417 
     47 H12         2.970739    2.439125   11.821990 H         7 BENZYL      0.062029 
     48 H13         0.931816    1.447056   12.814581 H         7 BENZYL      0.061766 
     49 H14         0.763784    1.144578   15.274429 H         7 BENZYL      0.061758 
     50 H15         7.752242    1.017974   10.041203 H         5 PHENYL      0.062120 
     51 H16         9.301245   -0.840100    9.654567 H         5 PHENYL      0.061768 
     52 H17        10.890234   -1.541739   11.429516 H         5 PHENYL      0.061758 
     53 H18        10.860995   -0.385313   13.628448 H         5 PHENYL      0.061768 
     54 H19         9.389053    1.541412   13.997269 H         5 PHENYL      0.062120 
     55 H20        11.890564    3.574311    8.961005 H         6 CYCLOHEXYL    0.034913 
     56 H21        10.194813    1.761624    8.960066 H         6 CYCLOHEXYL    0.027107 
     57 H22        11.419889    0.585096    8.425520 H         6 CYCLOHEXYL    0.027107 
     58 H23        10.144362    1.411353    6.465775 H         6 CYCLOHEXYL    0.026546 
     59 H24        10.528689    3.101981    6.883873 H         6 CYCLOHEXYL    0.026546 
     60 H25        12.571537    0.918886    6.104941 H         6 CYCLOHEXYL    0.026529 
     61 H26        12.059495    2.288984    5.082342 H         6 CYCLOHEXYL    0.026529 
     62 H27         2.648037    1.835585   16.738295 H         7 BENZYL      0.061766 
     63 H28         4.689306    2.826674   15.750277 H         7 BENZYL      0.062029 
     64 H29        14.265163    2.757714    6.206127 H         6 CYCLOHEXYL    0.026546 
     65 H30        13.011555    3.913971    6.727204 H         6 CYCLOHEXYL    0.026546 
     66 H31        13.950723    1.413545    8.262060 H         6 CYCLOHEXYL    0.027107 
     67 H32        14.307130    3.102136    8.707342 H         6 CYCLOHEXYL    0.027107 
@<TRIPOS>BOND
     1   17   18 1    
     2   18   19 ar   
     3    4    3 1    
     4    4    5 1    
     5    5    6 2    
     6    6    1 1    
     7    5    7 1    
     8    6    8 1    
     9    4    9 2    
    10   10   11 ar   
    11   10   15 ar   
    12   15   14 ar   
    13   14   13 ar   
    14   12   13 ar   
    15   11   12 ar   
    16    7   10 1    
    17   18   33 ar   
    18   33   32 ar   
    19   32   21 ar   
    20   21   20 ar   
    21    2   16 1    
    22   22   23 ar   
    23    3    2 1    
    24    1    2 1    
    25   22   27 ar   
    26   27   26 ar   
    27   26   25 ar   
    28   25   24 ar   
    29   24   23 ar   
    30    2   22 1    
    31   28   29 1    
    32   28   35 1    
    33   35   34 1    
    34   20   19 ar   
    35   16   17 1    
    36   34   31 1    
    37   31   30 1    
    38   30   29 1    
    39   11   28 1    
    40    1   36 1    
    41    1   37 1    
    42    8   38 1    
    43   12   39 1    
    44   13   40 1    
    45   14   41 1    
    46   15   42 1    
    47   16   43 1    
    48   16   44 1    
    49   17   45 1    
    50   17   46 1    
    51   19   47 1    
    52   20   48 1    
    53   21   49 1    
    54   23   50 1    
    55   24   51 1    
    56   25   52 1    
    57   26   53 1    
    58   27   54 1    
    59   28   55 1    
    60   29   56 1    
    61   29   57 1    
    62   30   58 1    
    63   30   59 1    
    64   31   60 1    
    65   31   61 1    
    66   32   62 1    
    67   33   63 1    
    68   34   64 1    
    69   34   65 1    
    70   35   66 1    
    71   35   67 1    
@<TRIPOS>SUBSTRUCTURE
     1 PHENYL      2 PERM              0 ****  ****    4  
     2 PHENYL     10 PERM              0 ****  ****    3 ROOT 
     3 PHENYL     16 PERM              0 ****  ****    2  
     4 PHENYL     10 PERM              0 ****  ****    2  
     5 PHENYL     22 PERM              0 ****  ****    1  
     6 CYCLOHEXYL    28 PERM              0 ****  ****    1  
     7 BENZYL     17 PERM              0 ****  ****    1  
@<TRIPOS>NORMAL
@<TRIPOS>FF_PBC
FORCE_FIELD_SETUP_FEATURE Force Field Setup information
v1.0  0 0.000000 0.000000 0.000000 0.000000 0.000000 0.000000 NONE 0 0 0 0 1 0 0 0 0 0 0 0 0
