#	Name:			T49
#	Creating user name:	ccollar
#	Creation time:		Fri Jul 29 22:24:40 2005

#	Modifying user name:	ccollar
#	Modification time:	Sat Jul 30 00:22:50 2005

@<TRIPOS>MOLECULE
T49
   60    63     6     1     0
SMALL
GASTEIGER


@<TRIPOS>ATOM
      1 C1          6.601270    1.938162   10.430391 C.3       2 PHENYL      0.033062 
      2 C2          6.899097    0.835756   11.478605 C.3       1 PHENYL      0.134230 
      3 O3          7.534680    1.438183   12.623892 O.3       2 PHENYL     -0.294445 
      4 C4          8.613019    2.179605   12.334093 C.2       2 PHENYL      0.303825 
      5 C5          8.919476    2.592749   10.948861 C.2       2 PHENYL      0.109840 
      6 C6          7.939173    2.519199   10.042261 C.2       2 PHENYL      0.072802 
      7 S7         10.546705    3.198810   10.510908 S.3       2 PHENYL     -0.081057 
      8 O8          8.127970    2.954119    8.790188 O.3       2 PHENYL     -0.362697 
      9 O9          9.321750    2.545623   13.255792 O.2       2 PHENYL     -0.258526 
     10 C          11.450022    1.686635   10.769364 C.ar      4 PHENYL      0.016652 
     11 C          11.848487    0.860646    9.701980 C.ar      4 PHENYL     -0.028253 
     12 C          12.046356   -0.494037   10.016552 C.ar      4 PHENYL     -0.057012 
     13 C          12.191395   -0.925318   11.338058 C.ar      4 PHENYL     -0.061418 
     14 C          12.097119   -0.005320   12.381331 C.ar      4 PHENYL     -0.060692 
     15 C          11.742739    1.310419   12.083867 C.ar      4 PHENYL     -0.047700 
     16 C           5.567375    0.191747   11.906597 C.ar      3 PHENYL     -0.018304 
     17 C           5.008157   -0.824650   11.121065 C.ar      3 PHENYL     -0.078034 
     18 C           3.723250   -1.537241   11.523074 C.3       3 PHENYL     -0.033844 
     19 C           3.566543   -1.513107   13.079299 C.3       3 PHENYL     -0.046139 
     20 C           3.630143   -0.025447   13.562570 C.3       3 PHENYL     -0.033844 
     21 C           4.920770    0.623466   13.071890 C.ar      3 PHENYL     -0.078034 
     22 C           7.855101   -0.285313   11.009538 C.ar      5 PHENYL     -0.010491 
     23 C           8.213629   -0.496720    9.670668 C.ar      5 PHENYL     -0.055489 
     24 C           9.086565   -1.531183    9.321256 C.ar      5 PHENYL     -0.061401 
     25 C           9.594965   -2.384053   10.303506 C.ar      5 PHENYL     -0.061739 
     26 C           9.249826   -2.179378   11.641027 C.ar      5 PHENYL     -0.061401 
     27 C           8.384045   -1.138266   11.986204 C.ar      5 PHENYL     -0.055489 
     28 C1         12.103287    1.391512    8.256468 C.3       6 CYCLOHEXYL   -0.011623 
     29 C2         12.772354    0.320713    7.333995 C.3       6 CYCLOHEXYL   -0.056009 
     30 C30        10.788525    1.835174    7.551104 C.3       6 CYCLOHEXYL   -0.056009 
     31 H1          6.047632    1.503828    9.584115 H         2 PHENYL      0.036809 
     32 H2          5.980456    2.729690   10.877491 H         2 PHENYL      0.036809 
     33 C6         13.104518    2.584189    8.334756 C.3       6 CYCLOHEXYL   -0.056009 
     34 H3          7.376012    2.892079    8.211564 H         2 PHENYL      0.216929 
     35 H4         12.096653   -1.255590    9.250495 H         4 PHENYL      0.062080 
     36 H5         12.381732   -1.972153   11.555270 H         4 PHENYL      0.061767 
     37 H6         12.289483   -0.308572   13.405844 H         4 PHENYL      0.061791 
     38 H7         11.691397    2.042594   12.881867 H         4 PHENYL      0.062871 
     39 H8          5.486179   -1.115149   10.191212 H         3 PHENYL      0.057563 
     40 H9          2.874582   -1.022213   11.045950 H         3 PHENYL      0.030760 
     41 H10         3.748215   -2.580024   11.167175 H         3 PHENYL      0.030760 
     42 H11         2.607986   -1.970713   13.374788 H         3 PHENYL      0.027116 
     43 H12         4.387703   -2.085994   13.541354 H         3 PHENYL      0.027116 
     44 H13         2.777853    0.543862   13.159311 H         3 PHENYL      0.030760 
     45 H14         3.589544    0.011180   14.663314 H         3 PHENYL      0.030760 
     46 H15         5.329996    1.448733   13.645576 H         3 PHENYL      0.057563 
     47 H16         7.823358    0.125794    8.875980 H         5 PHENYL      0.062130 
     48 H17         9.370611   -1.674395    8.282934 H         5 PHENYL      0.061768 
     49 H18        10.256407   -3.200161   10.029374 H         5 PHENYL      0.061758 
     50 H19         9.653974   -2.828696   12.411616 H         5 PHENYL      0.061768 
     51 H20         8.119847   -0.997124   13.029727 H         5 PHENYL      0.062130 
     52 H21        13.083354    0.761444    6.374001 H         6 CYCLOHEXYL    0.023804 
     53 H22        12.071890   -0.493627    7.093097 H         6 CYCLOHEXYL    0.023804 
     54 H23        13.673855   -0.098960    7.807038 H         6 CYCLOHEXYL    0.023804 
     55 H24        10.938357    1.947994    6.466463 H         6 CYCLOHEXYL    0.023804 
     56 H25        10.436320    2.807157    7.911861 H         6 CYCLOHEXYL    0.023804 
     57 H26        10.003131    1.082618    7.714999 H         6 CYCLOHEXYL    0.023804 
     58 H27        14.045646    2.251382    8.799258 H         6 CYCLOHEXYL    0.023804 
     59 H28        12.715369    3.421903    8.927257 H         6 CYCLOHEXYL    0.023804 
     60 H29        13.330928    2.974172    7.330473 H         6 CYCLOHEXYL    0.023804 
@<TRIPOS>BOND
     1   16   17 ar   
     2   16   21 ar   
     3    4    3 1    
     4    4    5 1    
     5    5    6 2    
     6    6    1 1    
     7    5    7 1    
     8    6    8 1    
     9    4    9 2    
    10   10   11 ar   
    11   10   15 ar   
    12   15   14 ar   
    13   14   13 ar   
    14   12   13 ar   
    15   11   12 ar   
    16    7   10 1    
    17   21   20 ar   
    18   20   19 ar   
    19   19   18 ar   
    20   18   17 ar   
    21    2   16 1    
    22   22   23 ar   
    23    3    2 1    
    24    1    2 1    
    25   22   27 ar   
    26   27   26 ar   
    27   26   25 ar   
    28   25   24 ar   
    29   24   23 ar   
    30    2   22 1    
    31   28   29 1    
    32   28   33 1    
    33   28   30 1    
    34    1   31 1    
    35    1   32 1    
    36    8   34 1    
    37   11   28 1    
    38   12   35 1    
    39   13   36 1    
    40   14   37 1    
    41   15   38 1    
    42   17   39 1    
    43   18   40 1    
    44   18   41 1    
    45   19   42 1    
    46   19   43 1    
    47   20   44 1    
    48   20   45 1    
    49   21   46 1    
    50   23   47 1    
    51   24   48 1    
    52   25   49 1    
    53   26   50 1    
    54   27   51 1    
    55   29   52 1    
    56   29   53 1    
    57   29   54 1    
    58   30   55 1    
    59   30   56 1    
    60   30   57 1    
    61   33   58 1    
    62   33   59 1    
    63   33   60 1    
@<TRIPOS>SUBSTRUCTURE
     1 PHENYL      2 PERM              0 ****  ****    4  
     2 PHENYL     10 PERM              0 ****  ****    3 ROOT 
     3 PHENYL     16 PERM              0 ****  ****    1  
     4 PHENYL     10 PERM              0 ****  ****    2  
     5 PHENYL     22 PERM              0 ****  ****    1  
     6 CYCLOHEXYL    28 PERM              0 ****  ****    1  
@<TRIPOS>NORMAL
@<TRIPOS>FF_PBC
FORCE_FIELD_SETUP_FEATURE Force Field Setup information
v1.0  0 0.000000 0.000000 0.000000 0.000000 0.000000 0.000000 NONE 0 0 0 0 1 0 0 0 0 0 0 0 0
