#	Name:			T53
#	Creating user name:	ccollar
#	Creation time:		Fri Jul 29 22:24:40 2005

#	Modifying user name:	ccollar
#	Modification time:	Sat Jul 30 00:28:00 2005

@<TRIPOS>MOLECULE
T53
   66    69     6     1     0
SMALL
GASTEIGER


@<TRIPOS>ATOM
      1 C1          7.369472    3.298639   10.592522 C.3       2 PHENYL      0.033062 
      2 C2          7.201880    2.064174   11.516602 C.3       1 PHENYL      0.134230 
      3 O3          7.596384    2.403673   12.862508 O.3       2 PHENYL     -0.294445 
      4 C4          8.815283    2.953089   12.961499 C.2       2 PHENYL      0.303825 
      5 C5          9.513976    3.497508   11.780744 C.2       2 PHENYL      0.109840 
      6 C6          8.824885    3.692518   10.653099 C.2       2 PHENYL      0.072802 
      7 S7         11.247888    3.903240   11.868304 S.3       2 PHENYL     -0.081057 
      8 O8          9.413697    4.232908    9.577543 O.3       2 PHENYL     -0.362697 
      9 O9          9.333765    3.024659   14.063028 O.2       2 PHENYL     -0.258526 
     10 C          11.817718    2.255569   11.520794 C.ar      4 PHENYL      0.016659 
     11 C          12.326473    1.912351   10.258385 C.ar      4 PHENYL     -0.031049 
     12 C          12.680849    0.575868   10.035358 C.ar      4 PHENYL     -0.057006 
     13 C          12.541774   -0.388555   11.036688 C.ar      4 PHENYL     -0.057993 
     14 C          12.076709   -0.039676   12.308183 C.ar      4 PHENYL     -0.043727 
     15 C          11.739599    1.298311   12.537071 C.ar      4 PHENYL     -0.044277 
     16 C           5.720522    1.643555   11.500675 C.ar      3 PHENYL     -0.018304 
     17 C           5.244467    0.841999   10.454795 C.ar      3 PHENYL     -0.078034 
     18 C           3.795409    0.341558   10.410582 C.3       3 PHENYL     -0.033844 
     19 C           3.228911    0.223815   11.873696 C.3       3 PHENYL     -0.046139 
     20 C           3.391049    1.621203   12.581033 C.3       3 PHENYL     -0.033844 
     21 C           4.861017    2.063686   12.523917 C.ar      3 PHENYL     -0.078034 
     22 C           8.055608    0.831513   11.141197 C.ar      5 PHENYL     -0.010491 
     23 C           8.790491    0.720976    9.952959 C.ar      5 PHENYL     -0.055489 
     24 C           9.583506   -0.403138    9.705416 C.ar      5 PHENYL     -0.061401 
     25 C           9.609400   -1.458771   10.619407 C.ar      5 PHENYL     -0.061739 
     26 C           8.848372   -1.378366   11.787449 C.ar      5 PHENYL     -0.061401 
     27 C           8.085496   -0.236322   12.046271 C.ar      5 PHENYL     -0.055489 
     28 C1         12.523659    2.945237    9.124941 C.3       6 CYCLOHEXYL   -0.020465 
     29 C2         14.039740    3.158501    8.871730 C.3       6 CYCLOHEXYL   -0.058616 
     30 C30        11.790444    2.535558    7.817922 C.3       6 CYCLOHEXYL   -0.058616 
     31 C31        11.963235   -1.133677   13.389823 C.3       4 PHENYL     -0.021480 
     32 C32        13.379201   -1.457257   13.934517 C.3       4 PHENYL     -0.058650 
     33 C33        11.002384   -0.785232   14.561420 C.3       4 PHENYL     -0.058650 
     34 H1          7.025303    3.050997    9.576831 H         2 PHENYL      0.036809 
     35 H2          6.760001    4.135060   10.967619 H         2 PHENYL      0.036809 
     36 H3          8.850618    4.363820    8.822639 H         2 PHENYL      0.216929 
     37 H4         13.077096    0.262868    9.076691 H         4 PHENYL      0.062079 
     38 H5         12.803750   -1.419177   10.818993 H         4 PHENYL      0.062047 
     39 H6         11.413538    1.621823   13.515807 H         4 PHENYL      0.063151 
     40 H7          5.905851    0.568394    9.639031 H         3 PHENYL      0.057563 
     41 H8          3.195646    1.056603    9.825836 H         3 PHENYL      0.030760 
     42 H9          3.755375   -0.641944    9.915108 H         3 PHENYL      0.030760 
     43 H10         2.167706   -0.073778   11.851500 H         3 PHENYL      0.027116 
     44 H11         3.798884   -0.539004   12.429461 H         3 PHENYL      0.027116 
     45 H12         2.776889    2.380160   12.071413 H         3 PHENYL      0.030760 
     46 H13         3.064023    1.548206   13.630816 H         3 PHENYL      0.030760 
     47 H14         5.225511    2.730001   13.298937 H         3 PHENYL      0.057563 
     48 H15         8.757741    1.494230    9.198389 H         5 PHENYL      0.062130 
     49 H16        10.179215   -0.458317    8.799182 H         5 PHENYL      0.061768 
     50 H17        10.216354   -2.336980   10.422584 H         5 PHENYL      0.061758 
     51 H18         8.850183   -2.202695   12.494077 H         5 PHENYL      0.061768 
     52 H19         7.507599   -0.182956   12.963902 H         5 PHENYL      0.062130 
     53 H20        12.109904    3.925066    9.408943 H         6 CYCLOHEXYL    0.034378 
     54 H21        14.516908    2.231353    8.521132 H         6 CYCLOHEXYL    0.023545 
     55 H22        14.533119    3.474819    9.804255 H         6 CYCLOHEXYL    0.023545 
     56 H23        14.197568    3.938942    8.110827 H         6 CYCLOHEXYL    0.023545 
     57 H24        11.859700    3.345710    7.074893 H         6 CYCLOHEXYL    0.023545 
     58 H25        10.727690    2.351420    8.027360 H         6 CYCLOHEXYL    0.023545 
     59 H26        12.219582    1.629555    7.367627 H         6 CYCLOHEXYL    0.023545 
     60 H27        11.559410   -2.037371   12.901225 H         4 PHENYL      0.034345 
     61 H28        13.329718   -2.261731   14.684759 H         4 PHENYL      0.023545 
     62 H29        13.815452   -0.562003   14.403808 H         4 PHENYL      0.023545 
     63 H30        14.043972   -1.782813   13.119464 H         4 PHENYL      0.023545 
     64 H31        10.032297   -0.435132   14.178510 H         4 PHENYL      0.023545 
     65 H32        11.429821   -0.007759   15.212304 H         4 PHENYL      0.023545 
     66 H33        10.825773   -1.678593   15.180932 H         4 PHENYL      0.023545 
@<TRIPOS>BOND
     1   16   17 ar   
     2   16   21 ar   
     3    4    3 1    
     4    4    5 1    
     5    5    6 2    
     6    6    1 1    
     7    5    7 1    
     8    6    8 1    
     9    4    9 2    
    10   10   11 ar   
    11   10   15 ar   
    12   15   14 ar   
    13   14   13 ar   
    14   12   13 ar   
    15   11   12 ar   
    16    7   10 1    
    17   21   20 ar   
    18   20   19 ar   
    19   19   18 ar   
    20   18   17 ar   
    21    2   16 1    
    22   22   23 ar   
    23    3    2 1    
    24    1    2 1    
    25   22   27 ar   
    26   27   26 ar   
    27   26   25 ar   
    28   25   24 ar   
    29   24   23 ar   
    30    2   22 1    
    31   28   29 1    
    32   14   31 1    
    33   28   30 1    
    34   31   32 1    
    35   31   33 1    
    36    1   34 1    
    37   11   28 1    
    38    1   35 1    
    39    8   36 1    
    40   12   37 1    
    41   13   38 1    
    42   15   39 1    
    43   17   40 1    
    44   18   41 1    
    45   18   42 1    
    46   19   43 1    
    47   19   44 1    
    48   20   45 1    
    49   20   46 1    
    50   21   47 1    
    51   23   48 1    
    52   24   49 1    
    53   25   50 1    
    54   26   51 1    
    55   27   52 1    
    56   28   53 1    
    57   29   54 1    
    58   29   55 1    
    59   29   56 1    
    60   30   57 1    
    61   30   58 1    
    62   30   59 1    
    63   31   60 1    
    64   32   61 1    
    65   32   62 1    
    66   32   63 1    
    67   33   64 1    
    68   33   65 1    
    69   33   66 1    
@<TRIPOS>SUBSTRUCTURE
     1 PHENYL      2 PERM              0 ****  ****    4  
     2 PHENYL     10 PERM              0 ****  ****    3 ROOT 
     3 PHENYL     16 PERM              0 ****  ****    1  
     4 PHENYL     10 PERM              0 ****  ****    2  
     5 PHENYL     22 PERM              0 ****  ****    1  
     6 CYCLOHEXYL    28 PERM              0 ****  ****    1  
@<TRIPOS>NORMAL
@<TRIPOS>FF_PBC
FORCE_FIELD_SETUP_FEATURE Force Field Setup information
v1.0  0 0.000000 0.000000 0.000000 0.000000 0.000000 0.000000 NONE 0 0 0 0 1 0 0 0 0 0 0 0 0
