#	Name:			T54
#	Creating user name:	ccollar
#	Creation time:		Fri Jul 29 22:24:40 2005

#	Modifying user name:	ccollar
#	Modification time:	Sat Jul 30 00:50:46 2005

@<TRIPOS>MOLECULE
T54
   69    72     7     1     0
SMALL
GASTEIGER


@<TRIPOS>ATOM
      1 C1          9.410324    3.276066   14.053180 C.3       2 PHENYL      0.028875 
      2 C2         10.579170    3.858235   14.895252 C.3       1 PHENYL      0.110177 
      3 O3         10.985718    5.098640   14.279951 O.3       2 PHENYL     -0.299209 
      4 C4         11.270879    5.008357   12.969460 C.2       2 PHENYL      0.303514 
      5 C5         10.903863    3.818291   12.171546 C.2       2 PHENYL      0.109818 
      6 C6          9.984461    2.995211   12.696418 C.2       2 PHENYL      0.072466 
      7 S7         11.663185    3.560795   10.570160 S.3       2 PHENYL     -0.081057 
      8 O8          9.509091    1.904213   12.077096 O.3       2 PHENYL     -0.362708 
      9 O9         11.823585    5.954454   12.434723 O.2       2 PHENYL     -0.258537 
     10 C          13.315121    3.174388   11.109962 C.ar      4 PHENYL      0.016659 
     11 C          13.737285    1.844331   11.258134 C.ar      4 PHENYL     -0.031049 
     12 C          14.982678    1.609382   11.853622 C.ar      4 PHENYL     -0.057006 
     13 C          15.846552    2.663084   12.162558 C.ar      4 PHENYL     -0.057993 
     14 C          15.464248    3.987687   11.927929 C.ar      4 PHENYL     -0.043727 
     15 C          14.192312    4.224545   11.396957 C.ar      4 PHENYL     -0.044277 
     16 C          10.154760    4.173719   16.356977 C.3       3 PHENYL     -0.014588 
     17 C1          9.013684    5.218471   16.474241 C.3       7 BENZYL     -0.024728 
     18 C2          8.813939    5.582210   17.952779 C.ar      7 BENZYL     -0.047254 
     19 C3          7.959255    4.819957   18.757401 C.ar      7 BENZYL     -0.058571 
     20 C4          7.768394    5.154653   20.101253 C.ar      7 BENZYL     -0.061501 
     21 C5          8.436165    6.252856   20.650119 C.ar      7 BENZYL     -0.061742 
     22 C          11.793208    2.899603   14.979674 C.ar      5 PHENYL     -0.014873 
     23 C          11.628245    1.528592   15.219357 C.ar      5 PHENYL     -0.055818 
     24 C          12.726819    0.664024   15.234984 C.ar      5 PHENYL     -0.061411 
     25 C          14.016760    1.165468   15.050476 C.ar      5 PHENYL     -0.061739 
     26 C          14.200950    2.538960   14.882056 C.ar      5 PHENYL     -0.061411 
     27 C          13.096995    3.394584   14.836855 C.ar      5 PHENYL     -0.055818 
     28 C1         12.888968    0.644588   10.782494 C.3       6 CYCLOHEXYL   -0.020465 
     29 C2         12.324680   -0.131587   11.999626 C.3       6 CYCLOHEXYL   -0.058616 
     30 C30        16.419788    5.154503   12.246117 C.3       4 PHENYL     -0.021480 
     31 C31        15.818091    6.080527   13.336921 C.3       4 PHENYL     -0.058650 
     32 C6          9.296605    7.012950   19.853182 C.ar      7 BENZYL     -0.061501 
     33 C7          9.486472    6.676068   18.509730 C.ar      7 BENZYL     -0.058571 
     34 C34        16.765987    5.945940   10.956524 C.3       4 PHENYL     -0.058650 
     35 C6         13.697029   -0.291365    9.841063 C.3       6 CYCLOHEXYL   -0.058616 
     36 H1          8.964147    2.378419   14.503007 H         2 PHENYL      0.036464 
     37 H2          8.611590    4.018457   13.912058 H         2 PHENYL      0.036464 
     38 H3          9.832911    1.734186   11.200407 H         2 PHENYL      0.216929 
     39 H4         15.299964    0.599786   12.087160 H         4 PHENYL      0.062079 
     40 H5         16.819034    2.439015   12.589129 H         4 PHENYL      0.062047 
     41 H6         13.871367    5.238404   11.195378 H         4 PHENYL      0.063151 
     42 H7         11.037983    4.575347   16.880997 H         3 PHENYL      0.029969 
     43 H8          9.848435    3.245995   16.866595 H         3 PHENYL      0.029969 
     44 H9          9.263192    6.123527   15.898167 H         7 BENZYL      0.031417 
     45 H10         8.067469    4.818413   16.079667 H         7 BENZYL      0.031417 
     46 H11         7.440251    3.962192   18.341572 H         7 BENZYL      0.062029 
     47 H12         7.101326    4.561269   20.719225 H         7 BENZYL      0.061766 
     48 H13         8.287138    6.514720   21.693252 H         7 BENZYL      0.061758 
     49 H14        10.647511    1.108629   15.403987 H         5 PHENYL      0.062120 
     50 H15        12.578411   -0.400296   15.391216 H         5 PHENYL      0.061768 
     51 H16        14.869849    0.494066   15.041868 H         5 PHENYL      0.061758 
     52 H17        15.204287    2.941761   14.791069 H         5 PHENYL      0.061768 
     53 H18        13.275642    4.454958   14.698189 H         5 PHENYL      0.062120 
     54 H19        12.036706    0.992369   10.178939 H         6 CYCLOHEXYL    0.034378 
     55 H20        11.667267   -0.949231   11.665680 H         6 CYCLOHEXYL    0.023545 
     56 H21        11.739193    0.550426   12.632088 H         6 CYCLOHEXYL    0.023545 
     57 H22        13.137258   -0.561660   12.603340 H         6 CYCLOHEXYL    0.023545 
     58 H23        17.367828    4.753330   12.644841 H         4 PHENYL      0.034345 
     59 H24        14.877549    6.540698   12.999930 H         4 PHENYL      0.023545 
     60 H25        16.526787    6.885737   13.585816 H         4 PHENYL      0.023545 
     61 H26        15.617009    5.502101   14.251204 H         4 PHENYL      0.023545 
     62 H27         9.818022    7.865354   20.278049 H         7 BENZYL      0.061766 
     63 H28        10.161823    7.268852   17.900892 H         7 BENZYL      0.062029 
     64 H29        17.173264    5.261412   10.195998 H         4 PHENYL      0.023545 
     65 H30        17.522137    6.716786   11.173188 H         4 PHENYL      0.023545 
     66 H31        15.878007    6.443714   10.540312 H         4 PHENYL      0.023545 
     67 H32        14.510409   -0.808022   10.369955 H         6 CYCLOHEXYL    0.023545 
     68 H33        14.131765    0.294992    9.016332 H         6 CYCLOHEXYL    0.023545 
     69 H34        13.036194   -1.060334    9.410218 H         6 CYCLOHEXYL    0.023545 
@<TRIPOS>BOND
     1   17   18 1    
     2   18   19 ar   
     3    4    3 1    
     4    4    5 1    
     5    5    6 2    
     6    6    1 1    
     7    5    7 1    
     8    6    8 1    
     9    4    9 2    
    10   10   11 ar   
    11   10   15 ar   
    12   15   14 ar   
    13   14   13 ar   
    14   12   13 ar   
    15   11   12 ar   
    16    7   10 1    
    17   18   33 ar   
    18   33   32 ar   
    19   32   21 ar   
    20   21   20 ar   
    21    2   16 1    
    22   22   23 ar   
    23    3    2 1    
    24    1    2 1    
    25   22   27 ar   
    26   27   26 ar   
    27   26   25 ar   
    28   25   24 ar   
    29   24   23 ar   
    30    2   22 1    
    31   28   29 1    
    32   28   35 1    
    33   14   30 1    
    34   20   19 ar   
    35   16   17 1    
    36   30   31 1    
    37   30   34 1    
    38    1   36 1    
    39   11   28 1    
    40    1   37 1    
    41    8   38 1    
    42   12   39 1    
    43   13   40 1    
    44   15   41 1    
    45   16   42 1    
    46   16   43 1    
    47   17   44 1    
    48   17   45 1    
    49   19   46 1    
    50   20   47 1    
    51   21   48 1    
    52   23   49 1    
    53   24   50 1    
    54   25   51 1    
    55   26   52 1    
    56   27   53 1    
    57   28   54 1    
    58   29   55 1    
    59   29   56 1    
    60   29   57 1    
    61   30   58 1    
    62   31   59 1    
    63   31   60 1    
    64   31   61 1    
    65   32   62 1    
    66   33   63 1    
    67   34   64 1    
    68   34   65 1    
    69   34   66 1    
    70   35   67 1    
    71   35   68 1    
    72   35   69 1    
@<TRIPOS>SUBSTRUCTURE
     1 PHENYL      2 PERM              0 ****  ****    4  
     2 PHENYL     10 PERM              0 ****  ****    3 ROOT 
     3 PHENYL     16 PERM              0 ****  ****    2  
     4 PHENYL     10 PERM              0 ****  ****    2  
     5 PHENYL     22 PERM              0 ****  ****    1  
     6 CYCLOHEXYL    28 PERM              0 ****  ****    1  
     7 BENZYL     17 PERM              0 ****  ****    1  
@<TRIPOS>NORMAL
@<TRIPOS>FF_PBC
FORCE_FIELD_SETUP_FEATURE Force Field Setup information
v1.0  0 0.000000 0.000000 0.000000 0.000000 0.000000 0.000000 NONE 0 0 0 0 1 0 0 0 0 0 0 0 0
