#	Name:			T55
#	Creating user name:	ccollar
#	Creation time:		Fri Jul 29 22:24:40 2005

#	Modifying user name:	ccollar
#	Modification time:	Sat Jul 30 00:30:08 2005

@<TRIPOS>MOLECULE
T55
   63    66     6     1     0
SMALL
GASTEIGER


@<TRIPOS>ATOM
      1 C1          7.293090    3.081288   11.313196 C.3       2 PHENYL      0.033062 
      2 C2          7.489907    1.787983   12.145249 C.3       1 PHENYL      0.134230 
      3 O3          8.121502    2.130486   13.395539 O.3       2 PHENYL     -0.294445 
      4 C4          9.248158    2.845178   13.269696 C.2       2 PHENYL      0.303825 
      5 C5          9.631330    3.464683   11.984477 C.2       2 PHENYL      0.109840 
      6 C6          8.678939    3.622612   11.059300 C.2       2 PHENYL      0.072802 
      7 S7         11.312522    4.004988   11.693731 S.3       2 PHENYL     -0.081048 
      8 O8          8.938475    4.251941    9.906658 O.3       2 PHENYL     -0.362697 
      9 O9          9.938250    3.010126   14.261022 O.2       2 PHENYL     -0.258526 
     10 C          12.060763    2.394265   11.554800 C.ar      4 PHENYL      0.016900 
     11 C          12.481809    1.866102   10.319876 C.ar      4 PHENYL     -0.028236 
     12 C          12.598169    0.467346   10.259161 C.ar      4 PHENYL     -0.056764 
     13 C          12.622226   -0.322026   11.412066 C.ar      4 PHENYL     -0.058497 
     14 C          12.445247    0.264103   12.665646 C.ar      4 PHENYL     -0.049381 
     15 C          12.205016    1.637294   12.721498 C.ar      4 PHENYL     -0.044781 
     16 C           6.108444    1.164119   12.418693 C.ar      3 PHENYL     -0.018304 
     17 C           5.514545    0.352668   11.442971 C.ar      3 PHENYL     -0.078034 
     18 C           4.165147   -0.348952   11.676026 C.3       3 PHENYL     -0.033844 
     19 C           3.962797   -0.614599   13.217506 C.3       3 PHENYL     -0.046139 
     20 C           4.100418    0.762183   13.977103 C.3       3 PHENYL     -0.033844 
     21 C           5.454896    1.411940   13.632853 C.ar      3 PHENYL     -0.078034 
     22 C           8.389446    0.712182   11.492682 C.ar      5 PHENYL     -0.010491 
     23 C           8.768881    0.725941   10.142715 C.ar      5 PHENYL     -0.055489 
     24 C           9.563190   -0.295789    9.614640 C.ar      5 PHENYL     -0.061401 
     25 C           9.975754   -1.355351   10.425341 C.ar      5 PHENYL     -0.061739 
     26 C           9.628692   -1.365009   11.778014 C.ar      5 PHENYL     -0.061401 
     27 C           8.840121   -0.337580   12.302831 C.ar      5 PHENYL     -0.055489 
     28 C1         12.840497    2.750249    9.083611 C.3       6 CYCLOHEXYL   -0.011623 
     29 C2         13.907122    3.804241    9.511599 C.3       6 CYCLOHEXYL   -0.056009 
     30 C30        13.488607    1.928344    7.921360 C.3       6 CYCLOHEXYL   -0.056009 
     31 C31        12.497711   -0.557664   13.957971 C.3       4 PHENYL     -0.039675 
     32 H1          6.736263    2.848019   10.392928 H         2 PHENYL      0.036809 
     33 H2          6.714231    3.820316   11.888174 H         2 PHENYL      0.036809 
     34 C34        11.586241    3.454591    8.487896 C.3       6 CYCLOHEXYL   -0.056009 
     35 H3          8.203357    4.347222    9.311174 H         2 PHENYL      0.216929 
     36 H4         12.673850   -0.058890    9.317591 H         4 PHENYL      0.062088 
     37 H5         12.779997   -1.392657   11.328806 H         4 PHENYL      0.062029 
     38 H6         12.127096    2.119651   13.688162 H         4 PHENYL      0.063133 
     39 H7          6.002802    0.213999   10.484004 H         3 PHENYL      0.057563 
     40 H8          3.361995    0.299707   11.292566 H         3 PHENYL      0.030760 
     41 H9          4.141506   -1.304044   11.126914 H         3 PHENYL      0.030760 
     42 H10         2.971111   -1.058342   13.403889 H         3 PHENYL      0.027116 
     43 H11         4.736864   -1.312828   13.576303 H         3 PHENYL      0.027116 
     44 H12         3.294839    1.448161   13.671622 H         3 PHENYL      0.030760 
     45 H13         4.031523    0.596915   15.064378 H         3 PHENYL      0.030760 
     46 H14         5.895584    2.087808   14.358364 H         3 PHENYL      0.057563 
     47 H15         8.455772    1.516974    9.473696 H         5 PHENYL      0.062130 
     48 H16         9.860205   -0.267745    8.570476 H         5 PHENYL      0.061768 
     49 H17        10.565503   -2.164952   10.006596 H         5 PHENYL      0.061758 
     50 H18         9.971277   -2.170196   12.420703 H         5 PHENYL      0.061768 
     51 H19         8.573860   -0.363427   13.354978 H         5 PHENYL      0.062130 
     52 H20        14.803309    3.292532    9.895301 H         6 CYCLOHEXYL    0.023804 
     53 H21        13.544733    4.479024   10.296888 H         6 CYCLOHEXYL    0.023804 
     54 H22        14.203917    4.432182    8.657468 H         6 CYCLOHEXYL    0.023804 
     55 H23        13.863493    2.591171    7.125907 H         6 CYCLOHEXYL    0.023804 
     56 H24        12.755482    1.256361    7.449265 H         6 CYCLOHEXYL    0.023804 
     57 H25        14.345890    1.340079    8.284195 H         6 CYCLOHEXYL    0.023804 
     58 H26        12.649873   -1.628816   13.758089 H         4 PHENYL      0.027754 
     59 H27        11.548483   -0.432785   14.500815 H         4 PHENYL      0.027754 
     60 H28        13.323738   -0.193399   14.586849 H         4 PHENYL      0.027754 
     61 H29        11.788510    3.840212    7.476951 H         6 CYCLOHEXYL    0.023804 
     62 H30        11.276285    4.318611    9.085111 H         6 CYCLOHEXYL    0.023804 
     63 H31        10.751317    2.740036    8.424951 H         6 CYCLOHEXYL    0.023804 
@<TRIPOS>BOND
     1   16   17 ar   
     2   16   21 ar   
     3    4    3 1    
     4    4    5 1    
     5    5    6 2    
     6    6    1 1    
     7    5    7 1    
     8    6    8 1    
     9    4    9 2    
    10   10   11 ar   
    11   10   15 ar   
    12   15   14 ar   
    13   14   13 ar   
    14   12   13 ar   
    15   11   12 ar   
    16    7   10 1    
    17   21   20 ar   
    18   20   19 ar   
    19   19   18 ar   
    20   18   17 ar   
    21    2   16 1    
    22   22   23 ar   
    23    3    2 1    
    24    1    2 1    
    25   22   27 ar   
    26   27   26 ar   
    27   26   25 ar   
    28   25   24 ar   
    29   24   23 ar   
    30    2   22 1    
    31   28   29 1    
    32   14   31 1    
    33   28   30 1    
    34    1   32 1    
    35    1   33 1    
    36   28   34 1    
    37   11   28 1    
    38    8   35 1    
    39   12   36 1    
    40   13   37 1    
    41   15   38 1    
    42   17   39 1    
    43   18   40 1    
    44   18   41 1    
    45   19   42 1    
    46   19   43 1    
    47   20   44 1    
    48   20   45 1    
    49   21   46 1    
    50   23   47 1    
    51   24   48 1    
    52   25   49 1    
    53   26   50 1    
    54   27   51 1    
    55   29   52 1    
    56   29   53 1    
    57   29   54 1    
    58   30   55 1    
    59   30   56 1    
    60   30   57 1    
    61   31   58 1    
    62   31   59 1    
    63   31   60 1    
    64   34   61 1    
    65   34   62 1    
    66   34   63 1    
@<TRIPOS>SUBSTRUCTURE
     1 PHENYL      2 PERM              0 ****  ****    4  
     2 PHENYL     10 PERM              0 ****  ****    3 ROOT 
     3 PHENYL     16 PERM              0 ****  ****    1  
     4 PHENYL     10 PERM              0 ****  ****    2  
     5 PHENYL     22 PERM              0 ****  ****    1  
     6 CYCLOHEXYL    28 PERM              0 ****  ****    1  
@<TRIPOS>NORMAL
@<TRIPOS>FF_PBC
FORCE_FIELD_SETUP_FEATURE Force Field Setup information
v1.0  0 0.000000 0.000000 0.000000 0.000000 0.000000 0.000000 NONE 0 0 0 0 1 0 0 0 0 0 0 0 0
