#	Name:			T57
#	Creating user name:	ccollar
#	Creation time:		Fri Jul 29 22:24:40 2005

#	Modifying user name:	ccollar
#	Modification time:	Sat Jul 30 00:56:47 2005

@<TRIPOS>MOLECULE
T57
   72    75     7     1     0
SMALL
GASTEIGER


@<TRIPOS>ATOM
      1 C1          9.496364    4.064058   13.518013 C.3       2 PHENYL      0.028875 
      2 C2          9.956443    2.914313   14.453583 C.3       1 PHENYL      0.110177 
      3 O3         10.953619    3.449836   15.346829 O.3       2 PHENYL     -0.299209 
      4 C4         11.977780    4.066076   14.733267 C.2       2 PHENYL      0.303514 
      5 C5         11.923812    4.429677   13.299012 C.2       2 PHENYL      0.109818 
      6 C6         10.711631    4.441392   12.724008 C.2       2 PHENYL      0.072466 
      7 S7         13.432482    4.857875   12.430016 S.3       2 PHENYL     -0.081048 
      8 O8         10.485234    4.784613   11.447541 O.3       2 PHENYL     -0.362708 
      9 O9         12.954862    4.354373   15.402720 O.2       2 PHENYL     -0.258537 
     10 C          14.301959    3.318275   12.593040 C.ar      4 PHENYL      0.016917 
     11 C          14.297703    2.344846   11.579372 C.ar      4 PHENYL     -0.028236 
     12 C          14.481233    1.023908   12.012501 C.ar      4 PHENYL     -0.056747 
     13 C          15.025855    0.734832   13.266385 C.ar      4 PHENYL     -0.057984 
     14 C          15.342723    1.767594   14.152302 C.ar      4 PHENYL     -0.043726 
     15 C          14.979009    3.067592   13.789932 C.ar      4 PHENYL     -0.044268 
     16 C           8.784268    2.358943   15.310833 C.3       3 PHENYL     -0.014588 
     17 C1          8.113092    3.416737   16.226064 C.3       7 BENZYL     -0.024728 
     18 C2          7.110147    2.716852   17.154829 C.ar      7 BENZYL     -0.047254 
     19 C3          5.787638    2.515947   16.743044 C.ar      7 BENZYL     -0.058571 
     20 C4          4.870728    1.888649   17.591694 C.ar      7 BENZYL     -0.061501 
     21 C5          5.273531    1.452957   18.857058 C.ar      7 BENZYL     -0.061742 
     22 C          10.577948    1.706501   13.709408 C.ar      5 PHENYL     -0.014873 
     23 C          10.240595    1.363831   12.392539 C.ar      5 PHENYL     -0.055818 
     24 C          10.784141    0.226821   11.787573 C.ar      5 PHENYL     -0.061411 
     25 C          11.691600   -0.574905   12.482902 C.ar      5 PHENYL     -0.061739 
     26 C          12.054529   -0.230929   13.786422 C.ar      5 PHENYL     -0.061411 
     27 C          11.508273    0.906515   14.386603 C.ar      5 PHENYL     -0.055818 
     28 C1         14.132691    2.612321   10.052714 C.3       6 CYCLOHEXYL   -0.011623 
     29 C2         14.328980    4.105149    9.636632 C.3       6 CYCLOHEXYL   -0.056009 
     30 C30        16.055261    1.487538   15.488797 C.3       4 PHENYL     -0.021480 
     31 C31        17.397343    0.740830   15.263455 C.3       4 PHENYL     -0.058650 
     32 C6          6.595069    1.643369   19.270002 C.ar      7 BENZYL     -0.061501 
     33 C7          7.510323    2.270832   18.419715 C.ar      7 BENZYL     -0.058571 
     34 C34        15.114658    0.700262   16.438376 C.3       4 PHENYL     -0.058650 
     35 C6         15.224027    1.808345    9.272149 C.3       6 CYCLOHEXYL   -0.056009 
     36 C36        12.721170    2.142910    9.604404 C.3       6 CYCLOHEXYL   -0.056009 
     37 H1          8.645222    3.774162   12.884919 H         2 PHENYL      0.036464 
     38 H2          9.204149    4.954736   14.093028 H         2 PHENYL      0.036464 
     39 H3         11.237739    5.061996   10.939489 H         2 PHENYL      0.216929 
     40 H4         14.203949    0.188583   11.381968 H         4 PHENYL      0.062088 
     41 H5         15.200807   -0.299378   13.540584 H         4 PHENYL      0.062047 
     42 H6         15.212742    3.900190   14.443837 H         4 PHENYL      0.063151 
     43 H7          9.183514    1.560255   15.957468 H         3 PHENYL      0.029969 
     44 H8          8.023404    1.912946   14.649920 H         3 PHENYL      0.029969 
     45 H9          8.875001    3.939024   16.826163 H         7 BENZYL      0.031417 
     46 H10         7.575500    4.171721   15.632688 H         7 BENZYL      0.031417 
     47 H11         5.466716    2.845486   15.759952 H         7 BENZYL      0.062029 
     48 H12         3.845115    1.739480   17.267868 H         7 BENZYL      0.061766 
     49 H13         4.561605    0.967372   19.517598 H         7 BENZYL      0.061758 
     50 H14         9.549731    1.961892   11.812701 H         5 PHENYL      0.062120 
     51 H15        10.498113   -0.036906   10.773766 H         5 PHENYL      0.061768 
     52 H16        12.111575   -1.459365   12.013805 H         5 PHENYL      0.061758 
     53 H17        12.758285   -0.849226   14.334601 H         5 PHENYL      0.061768 
     54 H18        11.813415    1.156168   15.397355 H         5 PHENYL      0.062120 
     55 H19        14.490380    4.205351    8.552563 H         6 CYCLOHEXYL    0.023804 
     56 H20        15.206109    4.532707   10.146232 H         6 CYCLOHEXYL    0.023804 
     57 H21        13.443519    4.715718    9.848834 H         6 CYCLOHEXYL    0.023804 
     58 H22        16.297050    2.445497   15.981470 H         4 PHENYL      0.034345 
     59 H23        17.235311   -0.265688   14.851274 H         4 PHENYL      0.023545 
     60 H24        17.939527    0.637553   16.216501 H         4 PHENYL      0.023545 
     61 H25        18.027905    1.310078   14.562647 H         4 PHENYL      0.023545 
     62 H26         6.910861    1.303404   20.251678 H         7 BENZYL      0.061766 
     63 H27         8.536017    2.408399   18.747189 H         7 BENZYL      0.062029 
     64 H28        15.596569    0.550696   17.417105 H         4 PHENYL      0.023545 
     65 H29        14.864417   -0.285696   16.019939 H         4 PHENYL      0.023545 
     66 H30        14.181409    1.264616   16.590856 H         4 PHENYL      0.023545 
     67 H31        15.131607    0.720272    9.384385 H         6 CYCLOHEXYL    0.023804 
     68 H32        16.222805    2.105672    9.627790 H         6 CYCLOHEXYL    0.023804 
     69 H33        15.170390    2.004941    8.190345 H         6 CYCLOHEXYL    0.023804 
     70 H34        12.553409    2.378971    8.542432 H         6 CYCLOHEXYL    0.023804 
     71 H35        11.948242    2.646932   10.203701 H         6 CYCLOHEXYL    0.023804 
     72 H36        12.606796    1.057603    9.734134 H         6 CYCLOHEXYL    0.023804 
@<TRIPOS>BOND
     1   17   18 1    
     2   18   19 ar   
     3    4    3 1    
     4    4    5 1    
     5    5    6 2    
     6    6    1 1    
     7    5    7 1    
     8    6    8 1    
     9    4    9 2    
    10   10   11 ar   
    11   10   15 ar   
    12   15   14 ar   
    13   14   13 ar   
    14   12   13 ar   
    15   11   12 ar   
    16    7   10 1    
    17   18   33 ar   
    18   33   32 ar   
    19   32   21 ar   
    20   21   20 ar   
    21    2   16 1    
    22   22   23 ar   
    23    3    2 1    
    24    1    2 1    
    25   22   27 ar   
    26   27   26 ar   
    27   26   25 ar   
    28   25   24 ar   
    29   24   23 ar   
    30    2   22 1    
    31   28   29 1    
    32   28   35 1    
    33   14   30 1    
    34   20   19 ar   
    35   16   17 1    
    36   30   31 1    
    37   30   34 1    
    38   28   36 1    
    39   11   28 1    
    40    1   37 1    
    41    1   38 1    
    42    8   39 1    
    43   12   40 1    
    44   13   41 1    
    45   15   42 1    
    46   16   43 1    
    47   16   44 1    
    48   17   45 1    
    49   17   46 1    
    50   19   47 1    
    51   20   48 1    
    52   21   49 1    
    53   23   50 1    
    54   24   51 1    
    55   25   52 1    
    56   26   53 1    
    57   27   54 1    
    58   29   55 1    
    59   29   56 1    
    60   29   57 1    
    61   30   58 1    
    62   31   59 1    
    63   31   60 1    
    64   31   61 1    
    65   32   62 1    
    66   33   63 1    
    67   34   64 1    
    68   34   65 1    
    69   34   66 1    
    70   35   67 1    
    71   35   68 1    
    72   35   69 1    
    73   36   70 1    
    74   36   71 1    
    75   36   72 1    
@<TRIPOS>SUBSTRUCTURE
     1 PHENYL      2 PERM              0 ****  ****    4  
     2 PHENYL     10 PERM              0 ****  ****    3 ROOT 
     3 PHENYL     16 PERM              0 ****  ****    2  
     4 PHENYL     10 PERM              0 ****  ****    2  
     5 PHENYL     22 PERM              0 ****  ****    1  
     6 CYCLOHEXYL    28 PERM              0 ****  ****    1  
     7 BENZYL     17 PERM              0 ****  ****    1  
@<TRIPOS>NORMAL
@<TRIPOS>FF_PBC
FORCE_FIELD_SETUP_FEATURE Force Field Setup information
v1.0  0 0.000000 0.000000 0.000000 0.000000 0.000000 0.000000 NONE 0 0 0 0 1 0 0 0 0 0 0 0 0
