#	Name:			T62
#	Creating user name:	ccollar
#	Creation time:		Fri Jul 29 22:24:40 2005

#	Modifying user name:	ccollar
#	Modification time:	Sat Jul 30 01:14:16 2005

@<TRIPOS>MOLECULE
T62
   63    66     6     1     0
SMALL
GASTEIGER


@<TRIPOS>ATOM
      1 C1         13.355215    8.460448   12.496862 C.3       2 PHENYL      0.028875 
      2 C2         13.817438    8.856830   11.064749 C.3       1 PHENYL      0.110177 
      3 O3         13.160599    7.988958   10.114725 O.3       2 PHENYL     -0.299209 
      4 C4         13.266161    6.672585   10.350787 C.2       2 PHENYL      0.303514 
      5 C5         13.642935    6.144263   11.677322 C.2       2 PHENYL      0.109818 
      6 C6         13.627087    6.999956   12.708402 C.2       2 PHENYL      0.072466 
      7 S7         14.087817    4.417156   11.844740 S.3       2 PHENYL     -0.081057 
      8 O8         13.846483    6.638950   13.983014 O.3       2 PHENYL     -0.362708 
      9 O9         13.006786    5.905744    9.439756 O.2       2 PHENYL     -0.258537 
     10 C          15.815416    4.607689   11.456652 C.ar      4 PHENYL      0.016642 
     11 C          16.394154    3.976275   10.343621 C.ar      4 PHENYL     -0.031050 
     12 C          17.666034    4.407817    9.938299 C.ar      4 PHENYL     -0.057023 
     13 C          18.423733    5.282824   10.721454 C.ar      4 PHENYL     -0.058506 
     14 C          17.913707    5.754343   11.933055 C.ar      4 PHENYL     -0.049381 
     15 C          16.604755    5.415549   12.282848 C.ar      4 PHENYL     -0.044790 
     16 C16        14.484350    3.269168    8.736212 C.3       6 CYCLOHEXYL   -0.058616 
     17 C17        18.752100    6.625952   12.876099 C.3       4 PHENYL     -0.039675 
     18 C18        15.354128    8.712142   10.826448 C.3       1 PHENYL     -0.014588 
     19 C1         16.245702    9.690434   11.638634 C.3       3 BENZYL     -0.024728 
     20 C2         17.758607    9.592668   11.357576 C.ar      3 BENZYL     -0.047254 
     21 C3         18.326578    8.743550   10.396524 C.ar      3 BENZYL     -0.058571 
     22 C          13.395893   10.291460   10.664934 C.ar      5 PHENYL     -0.014873 
     23 C          13.167173   11.309907   11.601808 C.ar      5 PHENYL     -0.055818 
     24 C          12.767507   12.585984   11.193214 C.ar      5 PHENYL     -0.061411 
     25 C          12.602427   12.870862    9.836189 C.ar      5 PHENYL     -0.061739 
     26 C          12.842798   11.871970    8.890792 C.ar      5 PHENYL     -0.061411 
     27 C          13.238986   10.597369    9.305703 C.ar      5 PHENYL     -0.055818 
     28 C1         15.723397    2.823252    9.557054 C.3       6 CYCLOHEXYL   -0.020465 
     29 C4         19.709851    8.722300   10.193564 C.ar      3 BENZYL     -0.061501 
     30 C5         20.547240    9.532981   10.963266 C.ar      3 BENZYL     -0.061742 
     31 C6         19.993438   10.374789   11.930226 C.ar      3 BENZYL     -0.061501 
     32 C7         18.608807   10.405138   12.118167 C.ar      3 BENZYL     -0.058571 
     33 H1         13.892083    9.017714   13.275843 H         2 PHENYL      0.036464 
     34 H2         12.274968    8.636745   12.612782 H         2 PHENYL      0.036464 
     35 H3         13.938502    5.709401   14.159788 H         2 PHENYL      0.216929 
     36 C36        15.413189    1.606532   10.471121 C.3       6 CYCLOHEXYL   -0.058616 
     37 H4         18.093028    4.062434    9.002138 H         4 PHENYL      0.062079 
     38 H5         19.410152    5.587432   10.386962 H         4 PHENYL      0.062029 
     39 H6         16.202167    5.793011   13.213975 H         4 PHENYL      0.063133 
     40 H7         14.714869    4.191406    8.180655 H         6 CYCLOHEXYL    0.023545 
     41 H8         13.612213    3.444612    9.377993 H         6 CYCLOHEXYL    0.023545 
     42 H9         14.205667    2.486887    8.012352 H         6 CYCLOHEXYL    0.023545 
     43 H10        18.999230    6.039091   13.773041 H         4 PHENYL      0.027754 
     44 H11        18.174885    7.512067   13.178819 H         4 PHENYL      0.027754 
     45 H12        19.688450    6.959942   12.405754 H         4 PHENYL      0.027754 
     46 H13        15.521960    8.903344    9.754703 H         1 PHENYL      0.029969 
     47 H14        15.682389    7.686617   11.045239 H         1 PHENYL      0.029969 
     48 H15        15.942506   10.727746   11.428065 H         3 BENZYL      0.031417 
     49 H16        16.115386    9.499049   12.713896 H         3 BENZYL      0.031417 
     50 H17        17.719016    8.083782    9.790079 H         3 BENZYL      0.062029 
     51 H18        13.296825   11.140556   12.662649 H         5 PHENYL      0.062120 
     52 H19        12.584978   13.360575   11.932283 H         5 PHENYL      0.061768 
     53 H20        12.290319   13.861170    9.518546 H         5 PHENYL      0.061758 
     54 H21        12.721692   12.086423    7.833163 H         5 PHENYL      0.061768 
     55 H22        13.426131    9.842849    8.548270 H         5 PHENYL      0.062120 
     56 H23        16.449221    2.446183    8.814984 H         6 CYCLOHEXYL    0.034378 
     57 H24        20.137031    8.072225    9.435909 H         3 BENZYL      0.061766 
     58 H25        21.621954    9.508916   10.810804 H         3 BENZYL      0.061758 
     59 H26        20.638522   11.005438   12.534472 H         3 BENZYL      0.061766 
     60 H27        18.192109   11.071046   12.867574 H         3 BENZYL      0.062029 
     61 H28        15.070131    0.752949    9.865225 H         6 CYCLOHEXYL    0.023545 
     62 H29        14.630617    1.833019   11.207134 H         6 CYCLOHEXYL    0.023545 
     63 H30        16.323294    1.305581   11.013473 H         6 CYCLOHEXYL    0.023545 
@<TRIPOS>BOND
     1   28   16 1    
     2   14   17 1    
     3    4    3 1    
     4    4    5 1    
     5    5    6 2    
     6    6    1 1    
     7    5    7 1    
     8    6    8 1    
     9    4    9 2    
    10   10   11 ar   
    11   10   15 ar   
    12   15   14 ar   
    13   14   13 ar   
    14   12   13 ar   
    15   11   12 ar   
    16    7   10 1    
    17    2   18 1    
    18   19   20 1    
    19   20   21 ar   
    20   20   32 ar   
    21   32   31 ar   
    22   22   23 ar   
    23    3    2 1    
    24    1    2 1    
    25   22   27 ar   
    26   27   26 ar   
    27   26   25 ar   
    28   25   24 ar   
    29   24   23 ar   
    30    2   22 1    
    31   31   30 ar   
    32    1   33 1    
    33   30   29 ar   
    34   29   21 ar   
    35   18   19 1    
    36    1   34 1    
    37    8   35 1    
    38   28   36 1    
    39   11   28 1    
    40   12   37 1    
    41   13   38 1    
    42   15   39 1    
    43   16   40 1    
    44   16   41 1    
    45   16   42 1    
    46   17   43 1    
    47   17   44 1    
    48   17   45 1    
    49   18   46 1    
    50   18   47 1    
    51   19   48 1    
    52   19   49 1    
    53   21   50 1    
    54   23   51 1    
    55   24   52 1    
    56   25   53 1    
    57   26   54 1    
    58   27   55 1    
    59   28   56 1    
    60   29   57 1    
    61   30   58 1    
    62   31   59 1    
    63   32   60 1    
    64   36   61 1    
    65   36   62 1    
    66   36   63 1    
@<TRIPOS>SUBSTRUCTURE
     1 PHENYL      2 PERM              0 ****  ****    4  
     2 PHENYL     10 PERM              0 ****  ****    3 ROOT 
     3 BENZYL     19 PERM              0 ****  ****    1  
     4 PHENYL     10 PERM              0 ****  ****    2  
     5 PHENYL     22 PERM              0 ****  ****    1  
     6 CYCLOHEXYL    28 PERM              0 ****  ****    1  
@<TRIPOS>NORMAL
@<TRIPOS>FF_PBC
FORCE_FIELD_SETUP_FEATURE Force Field Setup information
v1.0  0 0.000000 0.000000 0.000000 0.000000 0.000000 0.000000 NONE 0 0 0 0 1 0 0 0 0 0 0 0 0
